Uv/Vis Spectrum: Benzoic acid, 4-methoxy-
Formula: C8H8O3
CAS: 100-09-4
Melting point: 275-280
Instrument: Unicam SP 700
Origin: INSTITUTE OF ENERGY PROBLEMS OF CHEMICAL PHYSICS, RAS
Wavelength (nm)	Logarithm epsilon
210.62	4.151
211.63	4.131
212.64	4.107
213.48	4.083
214.16	4.055
214.83	4.028
215.34	4.001
215.84	3.973
216.35	3.946
216.85	3.919
217.36	3.888
217.7	3.857
218.03	3.826
218.37	3.795
218.71	3.765
219.04	3.734
219.21	3.703
219.55	3.672
219.72	3.641
219.89	3.611
220.13	3.577
220.39	3.549
220.56	3.518
220.82	3.486
221.07	3.457
221.4	3.426
221.74	3.395
222.12	3.365
222.58	3.337
223.49	3.311
224.61	3.316
225.45	3.34
226.23	3.365
226.97	3.395
227.81	3.422
228.41	3.446
229.16	3.477
229.83	3.504
230.34	3.532
231.01	3.559
231.69	3.587
232.13	3.613
232.7	3.645
233.37	3.672
234.04	3.7
234.55	3.727
235.22	3.754
235.9	3.782
236.4	3.809
237.25	3.836
237.92	3.864
238.6	3.891
239.44	3.919
240.11	3.946
240.79	3.973
241.46	4.001
242.3	4.028
242.98	4.055
243.82	4.083
244.49	4.11
245.37	4.135
246.52	4.155
247.7	4.175
249.04	4.192
250.39	4.206
251.74	4.22
253.26	4.23
254.78	4.237
256.29	4.24
257.81	4.237
259.16	4.223
260.67	4.216
262.02	4.203
263.2	4.182
264.38	4.162
265.56	4.141
266.57	4.12
267.58	4.097
268.6	4.073
269.27	4.045
270.11	4.021
270.96	3.994
271.8	3.97
272.47	3.943
273.31	3.915
274.16	3.888
274.83	3.86
275.51	3.833
276.18	3.806
276.85	3.778
277.36	3.751
278.2	3.723
278.71	3.696
279.21	3.669
279.89	3.641
280.56	3.614
281.07	3.587
281.74	3.559
282.42	3.532
282.92	3.501
283.43	3.474
283.93	3.446
284.44	3.419
284.94	3.392
285.62	3.364
286.12	3.337
286.63	3.306
287.13	3.279
287.64	3.251
288.15	3.224
288.48	3.193
288.99	3.166
289.49	3.138
290	3.107
290.51	3.077
290.94	3.049
291.35	3.018
291.85	2.991
292.32	2.959
292.7	2.93
293.14	2.897
293.54	2.868
293.98	2.837
294.38	2.81
294.72	2.779
295.08	2.75
295.56	2.721
295.9	2.69
296.24	2.659
296.57	2.628
296.91	2.598
297.25	2.567
297.58	2.536
297.92	2.505
298.26	2.474
298.43	2.444
298.76	2.413
299.1	2.382
299.27	2.351
299.61	2.32
299.94	2.29
300.28	2.259
300.45	2.228
300.79	2.197
301.12	2.166
301.29	2.136
301.63	2.105
301.8	2.074
302.13	2.043
302.3	2.012
