Uv/Vis Spectrum: p-Nitroaniline
Formula: C6H6N2O2
CAS: 100-01-6
Melting point: 147
Boiling point: 332
Instrument: Beckman DU
Origin: INSTITUTE OF ENERGY PROBLEMS OF CHEMICAL PHYSICS, RAS
Wavelength (nm)	Logarithm epsilon
221.5	3.847
222.25	3.86
224.05	3.885
224.79	3.897
225.84	3.907
226.74	3.919
227.64	3.929
228.69	3.938
229.59	3.947
230.79	3.952
231.99	3.947
233.04	3.94
233.77	3.933
234.68	3.919
235.75	3.903
236.69	3.889
237.53	3.873
239.71	3.834
241.73	3.792
242.41	3.777
243.07	3.758
243.67	3.739
246.07	3.664
246.82	3.643
247.72	3.621
248.62	3.598
249.37	3.574
252.96	3.435
254.01	3.405
255.06	3.372
256.23	3.342
257.07	3.32
258.33	3.296
259.86	3.262
261.06	3.231
262.28	3.201
263.73	3.167
264.95	3.134
266.17	3.103
267.37	3.066
268.53	3.034
269.69	2.999
270.95	2.967
272	2.935
274.09	2.871
275.44	2.853
276.84	2.844
278.31	2.852
279.78	2.87
281.25	2.887
283.35	2.919
285.05	2.946
286.68	2.972
287.94	2.996
289.16	3.022
290.53	3.048
292.46	3.089
294.03	3.126
295.45	3.151
296.67	3.175
298.14	3.195
299.3	3.214
300.82	3.238
302.49	3.267
303.75	3.288
305.44	3.315
306.46	3.336
307.96	3.363
309	3.388
310.2	3.41
311.4	3.43
312.45	3.459
314.55	3.499
315.6	3.524
316.5	3.548
317.54	3.566
318.89	3.591
320.24	3.624
320.99	3.646
322.04	3.664
322.79	3.687
323.84	3.708
325.34	3.741
326.08	3.76
326.83	3.776
327.73	3.792
329.08	3.813
330.28	3.829
330.88	3.845
331.78	3.858
332.53	3.873
333.89	3.894
334.84	3.907
335.52	3.917
336.42	3.927
337.17	3.938
337.92	3.949
338.82	3.959
339.76	3.973
340.6	3.983
341.66	3.995
342.42	4.004
343.17	4.015
343.92	4.024
344.96	4.035
345.71	4.043
346.76	4.054
347.51	4.064
348.26	4.072
349.01	4.08
350.54	4.094
351.66	4.106
352.58	4.115
353.49	4.123
354.25	4.129
355.33	4.137
356.2	4.142
357.7	4.151
358.45	4.157
359.5	4.162
360.93	4.17
362.16	4.174
363.24	4.178
364.44	4.181
365.64	4.185
366.99	4.185
368.38	4.187
369.54	4.187
370.89	4.185
372.23	4.184
373.88	4.182
375.23	4.181
376.13	4.176
377.18	4.171
378.53	4.164
379.43	4.158
380.48	4.154
381.37	4.148
382.27	4.142
383.02	4.135
383.77	4.127
384.82	4.122
385.57	4.115
386.47	4.103
387.37	4.096
388.12	4.087
388.87	4.08
389.62	4.067
390.36	4.059
391.11	4.047
391.86	4.037
392.61	4.027
393.06	4.017
393.81	4.007
394.56	3.996
395.01	3.985
395.76	3.975
396.21	3.964
396.96	3.952
397.56	3.94
398.91	3.916
400.25	3.89
401	3.878
401.6	3.864
402.05	3.849
402.8	3.835
403.7	3.809
404.6	3.796
405.05	3.779
405.95	3.763
406.4	3.744
407.15	3.726
407.75	3.706
408.64	3.678
409.99	3.628
410.74	3.601
411.34	3.574
412.09	3.548
412.69	3.516
413.44	3.482
414.19	3.45
415.84	3.383
416.59	3.342
417.49	3.304
418.38	3.262
419.18	3.222
420.13	3.169
421.35	3.101
422.91	3.004
424.47	2.896
425.58	2.792
426.63	2.667
427.82	2.532
