Uv/Vis Spectrum: 4-Pyridinecarbonitrile
Formula: C6H4N2
CAS: 100-48-1
Instrument: Zeiss PMQ II
Origin: INSTITUTE OF ENERGY PROBLEMS OF CHEMICAL PHYSICS, RAS
Wavelength (nm)	Logarithm epsilon
182.46	4.557
183.04	4.566
183.69	4.57
184.34	4.572
185	4.57
185.67	4.566
186.34	4.559
186.94	4.553
187.47	4.542
188	4.529
188.38	4.514
188.76	4.5
189.15	4.485
189.61	4.472
190.16	4.459
190.56	4.448
190.81	4.437
191.01	4.43
191.15	4.424
191.25	4.419
191.41	4.408
191.57	4.395
191.73	4.38
191.88	4.365
192.04	4.35
192.2	4.333
192.36	4.31
192.52	4.289
192.68	4.263
192.84	4.244
193	4.218
193.16	4.193
193.32	4.167
193.48	4.146
193.64	4.123
193.78	4.106
193.92	4.085
194.13	4.054
194.29	4.02
194.46	3.997
194.62	3.978
194.78	3.967
194.95	3.954
195.11	3.944
195.27	3.935
195.44	3.925
195.6	3.914
195.77	3.903
195.93	3.895
196.1	3.884
196.26	3.878
196.43	3.871
196.6	3.863
196.76	3.859
196.93	3.852
197.1	3.844
197.23	3.838
197.43	3.833
197.6	3.831
197.77	3.831
197.94	3.831
198.1	3.831
198.29	3.835
198.44	3.839
198.61	3.844
198.78	3.844
198.95	3.839
199.12	3.833
199.28	3.829
199.47	3.824
199.64	3.82
199.82	3.817
199.98	3.814
200.15	3.812
200.33	3.81
200.5	3.807
200.67	3.805
200.85	3.805
201.02	3.805
201.19	3.805
201.37	3.807
201.54	3.812
201.72	3.816
201.88	3.82
202.07	3.826
202.26	3.832
202.42	3.837
202.6	3.844
202.78	3.848
202.95	3.854
203.13	3.859
203.31	3.861
203.5	3.86
203.67	3.858
203.84	3.854
204.01	3.852
204.2	3.848
204.36	3.845
204.56	3.842
204.74	3.839
204.92	3.839
205.1	3.839
205.3	3.842
205.48	3.844
205.65	3.848
205.83	3.856
206.01	3.865
206.19	3.872
206.38	3.878
206.56	3.884
206.75	3.89
206.93	3.899
207.12	3.908
207.3	3.914
207.49	3.92
207.67	3.929
207.86	3.939
208.04	3.946
208.23	3.95
208.42	3.95
208.6	3.948
208.79	3.944
208.98	3.942
209.17	3.939
209.36	3.939
209.55	3.942
209.75	3.946
209.92	3.952
210.11	3.961
210.31	3.976
210.52	3.991
210.69	4.003
210.88	4.014
211.07	4.027
211.26	4.035
211.45	4.044
211.65	4.05
211.84	4.052
212.03	4.049
212.23	4.042
212.42	4.033
212.62	4.023
212.81	4.012
212.99	4.002
213.2	3.993
213.4	3.984
213.57	3.978
213.79	3.971
213.96	3.968
214.14	3.966
214.35	3.964
214.58	3.963
214.81	3.965
215.01	3.968
215.18	3.974
215.38	3.982
215.58	3.993
215.78	3.999
215.98	3.995
216.18	3.982
216.38	3.971
216.58	3.957
216.78	3.939
216.99	3.918
217.19	3.895
217.39	3.869
217.6	3.85
217.8	3.833
218.01	3.818
218.2	3.812
218.42	3.81
218.62	3.81
218.88	3.815
219.03	3.824
219.24	3.839
219.41	3.863
219.65	3.899
219.86	3.933
220.07	3.963
220.28	3.984
220.49	4.003
220.58	4.003
220.7	3.997
220.91	3.974
221.12	3.933
221.32	3.897
221.52	3.866
221.68	3.837
221.81	3.818
221.92	3.799
222.12	3.766
222.37	3.721
222.82	3.618
223.14	3.526
223.46	3.433
223.78	3.352
224.11	3.254
224.43	3.145
224.76	3.049
225.08	2.953
225.41	2.853
225.41	2.762
225.52	2.762
225.63	2.76
226.07	2.655
226.73	2.53
227.4	2.451
228.07	2.406
228.74	2.372
229.42	2.34
230.1	2.325
230.79	2.315
231.48	2.308
232.15	2.308
232.74	2.311
233.42	2.319
234.23	2.328
234.99	2.339
235.71	2.351
236.43	2.37
237.15	2.387
237.88	2.406
238.61	2.43
239.35	2.451
240.09	2.476
240.84	2.502
241.59	2.532
242.35	2.562
243.11	2.587
243.88	2.617
244.65	2.647
245.42	2.679
246.01	2.708
246.5	2.729
246.88	2.747
247.3	2.767
247.67	2.782
247.97	2.796
248.4	2.816
248.83	2.833
249.38	2.852
250.05	2.873
250.68	2.896
251.34	2.921
251.81	2.936
252.22	2.956
252.62	2.97
253.05	2.985
253.46	3.002
253.88	3.017
254.29	3.037
254.72	3.053
255.13	3.068
255.55	3.083
255.97	3.098
256.4	3.115
256.82	3.128
257.25	3.145
257.68	3.158
258.11	3.173
258.54	3.19
258.97	3.201
259.41	3.213
259.84	3.226
260.28	3.237
260.72	3.252
261.16	3.262
261.6	3.273
262.04	3.284
262.48	3.294
262.93	3.305
263.38	3.316
263.83	3.326
264.28	3.337
264.73	3.347
265.18	3.356
265.64	3.367
266.09	3.375
266.55	3.386
267.01	3.392
267.47	3.401
267.94	3.409
268.4	3.418
268.87	3.426
269.33	3.432
269.8	3.437
270.26	3.442
270.75	3.448
271.2	3.451
271.7	3.456
272.17	3.46
272.63	3.462
273.14	3.465
273.6	3.467
274.1	3.469
274.59	3.471
275.08	3.473
275.57	3.477
276.06	3.477
276.55	3.479
277.05	3.479
277.54	3.479
278.04	3.475
278.54	3.469
279.04	3.462
279.53	3.457
280.05	3.45
280.56	3.439
281.07	3.43
281.54	3.425
282.1	3.418
282.61	3.409
283.1	3.403
283.65	3.396
284.17	3.39
284.69	3.382
285.21	3.373
285.74	3.362
286.27	3.35
286.8	3.333
287.33	3.309
287.87	3.286
288.4	3.258
288.94	3.226
289.48	3.188
290.02	3.143
290.61	3.091
291.1	3.048
291.7	2.993
292.22	2.937
292.87	2.881
293.35	2.84
293.88	2.792
294.31	2.746
294.84	2.694
295.56	2.619
296.12	2.549
296.69	2.466
297.28	2.395
297.83	2.323
298.41	2.249
298.98	2.174
299.5	2.111
300.07	2.041
300.71	1.973
301.31	1.906
301.9	1.831
302.49	1.755
303.08	1.686
303.59	1.623
304.27	1.552
304.87	1.478
305.47	1.407
306.08	1.344
306.68	1.277
307.29	1.226
307.9	1.154
