Uv/Vis Spectrum: Naphthalene, 1,4-bis(methylthio)-
Formula: C12H12S2
CAS: 10075-73-7
Melting point: 94.5
Instrument: SF-4
Origin: INSTITUTE OF ENERGY PROBLEMS OF CHEMICAL PHYSICS, RAS
Wavelength (nm)	Logarithm epsilon
215.15	4.458
215.48	4.466
215.77	4.475
215.94	4.48
216.44	4.492
216.95	4.501
217.45	4.511
217.95	4.52
218.46	4.523
218.96	4.525
219.46	4.525
219.97	4.523
220.47	4.521
220.97	4.518
221.48	4.513
221.98	4.506
222.48	4.499
222.99	4.491
223.49	4.487
223.99	4.477
224.5	4.467
225	4.458
225.5	4.446
226.01	4.438
226.51	4.424
227.01	4.412
227.52	4.389
228.02	4.371
228.52	4.351
229.03	4.334
229.53	4.317
230.03	4.303
230.54	4.283
231.04	4.256
231.54	4.237
232.05	4.211
232.55	4.194
233.05	4.182
233.56	4.165
234.06	4.152
234.56	4.145
235.07	4.131
235.57	4.121
236.07	4.113
236.58	4.104
237.08	4.096
237.58	4.085
238.09	4.082
238.59	4.077
239.09	4.077
239.6	4.075
240.1	4.075
240.6	4.075
241.11	4.075
241.61	4.077
242.12	4.078
242.62	4.078
243.12	4.08
243.63	4.08
244.13	4.082
244.63	4.082
245.14	4.084
245.64	4.082
246.14	4.082
246.65	4.08
247.15	4.077
247.65	4.075
248.16	4.07
248.66	4.067
249.16	4.061
249.67	4.055
250.17	4.051
250.67	4.044
251.18	4.039
251.68	4.033
252.18	4.024
252.69	4.015
253.19	4.007
253.69	4
254.2	3.995
254.7	3.987
255.2	3.976
255.71	3.968
256.21	3.961
256.71	3.949
257.22	3.939
257.72	3.929
258.22	3.92
258.73	3.91
259.23	3.891
259.73	3.881
260.24	3.872
260.74	3.855
261.24	3.843
261.75	3.833
262.25	3.82
262.75	3.813
263.26	3.799
263.76	3.791
264.26	3.78
264.77	3.768
265.27	3.76
265.77	3.745
266.28	3.728
266.78	3.707
267.28	3.688
267.79	3.671
268.29	3.654
268.85	3.632
269.34	3.614
269.8	3.598
270.25	3.576
270.72	3.55
271.18	3.511
271.52	3.477
271.91	3.432
272.21	3.398
272.54	3.363
273	3.32
273.39	3.286
273.85	3.249
274.32	3.213
274.8	3.183
275.27	3.156
275.86	3.128
276.34	3.101
276.85	3.082
277.35	3.068
277.85	3.065
278.36	3.065
278.86	3.075
279.36	3.087
279.87	3.097
280.37	3.109
280.87	3.12
281.38	3.13
281.88	3.142
282.38	3.152
282.89	3.162
283.4	3.172
283.87	3.183
284.31	3.194
284.91	3.203
285.38	3.213
285.9	3.226
286.39	3.237
286.88	3.247
287.42	3.259
287.92	3.272
288.42	3.286
288.93	3.298
289.43	3.314
289.93	3.329
290.44	3.346
290.96	3.359
291.46	3.37
291.95	3.385
292.45	3.399
292.96	3.411
293.46	3.426
293.96	3.44
294.47	3.453
294.97	3.467
295.47	3.479
295.98	3.493
296.48	3.506
296.98	3.518
297.49	3.532
297.99	3.545
298.49	3.561
299	3.573
299.5	3.585
300	3.593
300.51	3.612
301.01	3.625
301.51	3.639
302.02	3.653
302.52	3.666
303.02	3.678
303.53	3.699
304.03	3.711
304.53	3.724
305.04	3.733
305.54	3.748
306.04	3.757
306.55	3.767
307.05	3.777
307.55	3.787
308.06	3.797
308.56	3.806
309.06	3.814
309.57	3.828
310.07	3.837
310.57	3.849
311.08	3.857
311.58	3.866
312.08	3.874
312.59	3.879
313.09	3.886
313.59	3.891
314.1	3.898
314.6	3.903
315.1	3.912
315.61	3.918
316.11	3.923
316.61	3.927
317.12	3.934
317.62	3.937
318.12	3.942
318.63	3.946
319.13	3.951
319.63	3.954
320.14	3.959
320.64	3.961
321.14	3.964
321.65	3.969
322.15	3.971
322.65	3.975
323.16	3.978
323.66	3.98
324.16	3.981
324.67	3.983
325.17	3.987
325.67	3.988
326.18	3.99
326.68	3.99
327.18	3.993
327.69	3.995
328.19	3.995
328.69	3.997
329.2	3.995
329.7	3.993
330.2	3.993
330.71	3.993
331.21	3.993
331.71	3.993
332.22	3.992
332.72	3.99
333.22	3.987
333.73	3.985
334.23	3.98
334.73	3.978
335.24	3.976
335.74	3.969
336.24	3.963
336.75	3.959
337.25	3.952
337.75	3.946
338.26	3.939
338.76	3.932
339.26	3.923
339.77	3.917
340.27	3.91
340.77	3.901
341.28	3.891
341.78	3.881
342.29	3.872
342.79	3.862
343.29	3.855
343.8	3.845
344.29	3.834
344.8	3.823
345.31	3.813
345.81	3.803
346.31	3.792
346.82	3.78
347.32	3.767
347.82	3.757
348.33	3.745
348.83	3.731
349.33	3.719
349.84	3.702
350.34	3.694
350.84	3.682
351.35	3.665
351.85	3.649
352.35	3.636
352.86	3.617
353.36	3.596
353.86	3.578
354.37	3.564
354.87	3.55
355.37	3.535
355.88	3.516
356.38	3.499
356.88	3.479
357.39	3.455
357.89	3.435
358.39	3.406
358.9	3.38
359.4	3.346
359.92	3.309
360.43	3.269
360.91	3.229
361.41	3.196
361.92	3.143
362.44	3.098
362.92	3.057
363.44	3.012
363.98	2.97
364.52	2.931
365.03	2.897
365.42	2.872
365.86	2.843
366.35	2.808
366.84	2.774
367.45	2.735
367.96	2.702
368.46	2.661
368.96	2.629
369.47	2.6
369.97	2.568
370.47	2.542
370.91	2.512
371.42	2.477
372.04	2.434
372.49	2.396
372.99	2.348
373.49	2.302
