Uv/Vis Spectrum: Benzene, 1-methoxy-4-nitro-
Formula: C7H7NO3
CAS: 100-17-4
Melting point: 54
Instrument: Unicam SP 500
Origin: INSTITUTE OF ENERGY PROBLEMS OF CHEMICAL PHYSICS, RAS
Wavelength (nm)	Logarithm epsilon
209.48	3.902
210.33	3.879
211.52	3.858
213.04	3.848
214.57	3.852
215.92	3.865
217.28	3.879
218.46	3.899
219.82	3.916
221.17	3.929
222.7	3.936
224.22	3.94
225.74	3.946
227.27	3.953
228.79	3.95
230.32	3.94
231.5	3.923
232.52	3.902
233.53	3.879
234.21	3.852
235.23	3.828
236.08	3.804
236.92	3.777
237.77	3.754
238.62	3.727
239.46	3.703
240.31	3.676
240.99	3.649
241.83	3.622
242.68	3.598
243.36	3.571
244.2	3.544
244.88	3.517
245.56	3.49
246.24	3.463
246.91	3.436
247.59	3.409
248.1	3.382
248.78	3.355
249.29	3.328
249.79	3.301
250.3	3.274
250.81	3.247
251.49	3.22
252.5	3.2
254.03	3.19
255.38	3.203
256.4	3.224
257.42	3.247
258.43	3.267
259.45	3.288
260.63	3.305
261.65	3.325
262.84	3.342
263.85	3.362
265.04	3.382
265.88	3.406
266.9	3.426
268.09	3.446
269.1	3.47
269.95	3.494
270.97	3.517
271.81	3.541
272.83	3.565
273.84	3.585
274.86	3.609
275.88	3.632
276.89	3.652
277.91	3.673
279.09	3.693
279.94	3.717
280.96	3.737
282.14	3.757
283.33	3.777
284.51	3.798
285.7	3.818
286.89	3.838
288.07	3.858
289.26	3.875
290.44	3.892
291.63	3.909
292.81	3.929
294	3.946
295.18	3.963
296.54	3.98
297.89	3.994
299.25	4.01
300.6	4.024
301.96	4.034
303.31	4.048
304.67	4.061
306.19	4.068
307.55	4.078
309.07	4.085
310.43	4.095
311.95	4.098
313.48	4.102
315	4.108
316.52	4.112
318.05	4.112
319.57	4.105
321.1	4.102
322.62	4.098
324.15	4.095
325.67	4.092
327.2	4.081
328.72	4.075
330.07	4.061
331.6	4.051
333.12	4.041
334.48	4.024
335.83	4.01
337.19	3.994
338.54	3.977
339.9	3.96
341.08	3.943
342.27	3.926
343.45	3.909
344.64	3.892
345.83	3.872
347.18	3.855
348.37	3.835
349.55	3.818
350.74	3.798
351.75	3.774
352.77	3.75
353.79	3.73
354.8	3.71
355.82	3.69
356.67	3.666
357.68	3.646
358.7	3.625
359.54	3.602
360.56	3.578
361.58	3.555
362.42	3.531
363.27	3.504
364.29	3.48
365.13	3.453
365.98	3.43
366.83	3.403
367.67	3.379
368.52	3.352
369.37	3.328
370.05	3.301
370.89	3.278
371.57	3.251
372.42	3.227
373.09	3.2
373.94	3.176
374.62	3.149
375.46	3.126
376.14	3.099
376.99	3.075
377.67	3.048
378.51	3.021
379.02	2.994
379.87	2.97
380.38	2.943
381.22	2.92
381.73	2.893
382.41	2.866
383.09	2.839
383.76	2.812
384.44	2.785
384.95	2.758
385.63	2.731
386.13	2.703
386.81	2.676
387.49	2.649
387.83	2.619
388.51	2.592
389.18	2.565
389.69	2.538
390.2	2.511
390.88	2.484
391.39	2.454
391.89	2.427
392.4	2.4
393.08	2.373
393.59	2.342
394.1	2.315
394.6	2.288
395.11	2.261
395.62	2.234
396.13	2.207
396.64	2.177
397.14	2.15
397.65	2.123
398.16	2.092
398.5	2.062
399.01	2.035
399.52	2.008
400.02	1.977
400.36	1.947
400.87	1.92
401.38	1.893
401.72	1.863
402.22	1.836
402.73	1.809
403.24	1.778
403.58	1.748
404.09	1.717
404.43	1.687
404.93	1.66
405.44	1.633
405.78	1.603
406.12	1.572
406.63	1.545
406.97	1.515
407.48	1.484
407.81	1.454
408.15	1.424
408.66	1.397
409	1.366
409.51	1.336
410.02	1.305
410.19	1.275
410.69	1.245
411.03	1.214
411.54	1.187
412.05	1.16
412.56	1.133
413.06	1.106
413.57	1.076
413.91	1.045
414.42	1.015
414.76	0.984
415.27	0.957
415.77	0.93
416.11	0.9
416.62	0.87
417.13	0.839
417.64	0.812
418.15	0.782
418.65	0.751
