Uv/Vis Spectrum: 4H-Pyran-4-one, 2,6-dimethyl-
Formula: C7H8O2
CAS: 1004-36-0
Melting point: 133.6-134.5
Instrument: VUV-3, Japan Spectroscopic Co.
Origin: INSTITUTE OF ENERGY PROBLEMS OF CHEMICAL PHYSICS, RAS
Wavelength (nm)	Logarithm epsilon
177.44	4.279
178.19	4.287
178.93	4.293
179.93	4.298
181.04	4.3
182.16	4.298
183.03	4.292
183.65	4.284
184.14	4.275
184.64	4.266
185.01	4.256
185.38	4.247
185.76	4.237
186.13	4.227
186.5	4.217
186.87	4.205
187.12	4.193
187.49	4.182
187.87	4.171
188.24	4.158
188.49	4.145
188.73	4.131
189.11	4.118
189.36	4.103
189.73	4.09
189.98	4.074
190.35	4.059
190.6	4.042
190.97	4.027
191.22	4.008
191.59	3.991
191.96	3.972
192.21	3.951
192.58	3.931
193.08	3.911
193.45	3.89
193.82	3.867
194.57	3.847
195.43	3.828
196.55	3.819
197.67	3.828
198.78	3.835
199.78	3.844
200.77	3.859
201.76	3.87
202.63	3.884
203.62	3.898
204.62	3.908
205.61	3.919
206.73	3.924
207.84	3.924
208.96	3.916
209.95	3.903
210.82	3.89
211.44	3.87
212.31	3.853
213.18	3.835
213.92	3.816
214.67	3.796
215.53	3.775
216.4	3.757
217.27	3.738
218.26	3.718
219.38	3.714
220.5	3.722
221.49	3.738
222.36	3.757
223.23	3.778
224.1	3.799
224.72	3.822
225.58	3.841
226.2	3.862
226.95	3.879
227.69	3.898
228.44	3.916
229.18	3.934
229.8	3.951
230.55	3.967
231.29	3.983
232.04	3.996
232.9	4.008
233.65	4.021
234.39	4.033
235.26	4.042
236.13	4.052
237.12	4.059
238.24	4.065
239.36	4.067
240.47	4.065
241.47	4.059
242.46	4.05
243.33	4.04
244.07	4.029
244.82	4.015
245.56	4.002
246.18	3.987
246.92	3.972
247.55	3.953
248.29	3.936
248.79	3.916
249.41	3.898
250.03	3.876
250.52	3.853
251.14	3.831
251.76	3.806
252.26	3.778
252.88	3.753
253.5	3.722
254.12	3.693
254.62	3.657
255.36	3.623
255.98	3.581
256.73	3.54
257.35	3.488
258.09	3.445
258.84	3.388
259.58	3.323
260.45	3.257
261.19	3.167
261.94	3.07
262.81	2.969
263.67	2.805
