Uv/Vis Spectrum: 1,2-Propadiene, 1-bromo-
Formula: C3H3Br
CAS: 10024-18-7
Instrument: Zeiss PMQ II
Origin: INSTITUTE OF ENERGY PROBLEMS OF CHEMICAL PHYSICS, RAS
Wavelength (nm)	Logarithm epsilon
201.01	3.764
201.7	3.747
202.3	3.726
203	3.705
203.61	3.684
204.23	3.663
204.94	3.646
205.56	3.625
206.19	3.604
206.82	3.583
207.46	3.562
208.1	3.54
208.74	3.515
209.39	3.49
210.04	3.469
210.7	3.443
211.36	3.418
211.93	3.393
212.6	3.368
213.27	3.342
213.95	3.317
214.53	3.287
215.12	3.262
215.71	3.237
216.3	3.212
216.89	3.182
217.5	3.157
218.1	3.127
218.63	3.101
219.16	3.076
219.86	3.042
220.45	3.012
221.09	2.98
221.79	2.95
222.41	2.925
223.04	2.895
223.68	2.87
224.32	2.841
224.87	2.81
225.49	2.782
226.14	2.752
226.68	2.726
227.34	2.697
228	2.672
228.66	2.647
229.22	2.617
229.89	2.588
230.45	2.558
231.12	2.529
231.69	2.495
232.38	2.465
232.93	2.438
233.64	2.406
234.34	2.377
235.04	2.343
235.74	2.314
236.36	2.287
237.16	2.259
237.76	2.232
238.43	2.203
239.2	2.17
239.93	2.145
240.67	2.12
241.41	2.09
242.25	2.063
243.04	2.037
243.71	2.013
244.53	1.989
245.34	1.967
246.29	1.943
247.09	1.921
248.13	1.9
249.05	1.879
250.1	1.858
251.17	1.846
252.38	1.833
253.6	1.82
254.83	1.816
256.07	1.812
257.33	1.816
258.6	1.82
259.88	1.825
261.17	1.829
262.48	1.837
263.8	1.841
265.13	1.846
266.42	1.851
267.82	1.857
269.19	1.86
270.6	1.862
272.01	1.854
273.31	1.846
274.7	1.833
275.98	1.82
277.28	1.803
278.43	1.79
279.74	1.77
280.91	1.749
282.09	1.726
283.27	1.702
284.46	1.677
285.5	1.647
286.54	1.622
287.58	1.593
288.64	1.563
289.7	1.534
290.59	1.504
291.49	1.47
292.39	1.437
293.3	1.403
294.21	1.373
294.95	1.34
295.57	1.312
296.43	1.272
297.37	1.239
298.07	1.207
298.87	1.171
299.44	1.137
300.2	1.104
300.97	1.07
301.74	1.036
302.43	1.003
303.29	0.964
304.07	0.931
304.85	0.897
305.84	0.863
306.63	0.829
307.43	0.796
308.24	0.762
309.25	0.728
310.06	0.695
310.88	0.661
