Uv/Vis Spectrum: Benzenemethanethiol
Formula: C7H8S
CAS: 100-53-8
Boiling point: 194.5
Instrument: unknown
Origin: INSTITUTE OF ENERGY PROBLEMS OF CHEMICAL PHYSICS, RAS
Wavelength (nm)	Logarithm epsilon
211.27	4.613
212.29	4.626
213.31	4.638
214.51	4.65
215.87	4.661
217.41	4.667
218.78	4.673
220.31	4.675
221.85	4.673
223.21	4.667
224.41	4.657
225.43	4.644
226.13	4.631
226.87	4.615
227.48	4.594
227.99	4.578
228.68	4.561
229.23	4.546
229.87	4.528
230.38	4.512
230.9	4.495
231.41	4.478
231.97	4.462
232.6	4.443
233.17	4.427
233.8	4.41
234.31	4.393
234.85	4.378
235.5	4.36
236.02	4.344
236.53	4.325
237.04	4.308
237.68	4.29
238.24	4.273
238.75	4.256
239.43	4.24
240.45	4.225
241.82	4.217
243.36	4.217
244.72	4.227
245.57	4.242
246.6	4.254
247.45	4.271
248.31	4.288
249.16	4.304
249.84	4.321
250.7	4.337
251.38	4.354
252.06	4.371
252.91	4.387
253.6	4.404
254.45	4.42
255.13	4.437
255.99	4.453
257.18	4.464
258.55	4.472
260.08	4.472
261.45	4.466
262.81	4.456
264.01	4.443
264.86	4.429
265.55	4.412
266.23	4.395
266.91	4.379
267.42	4.365
267.95	4.35
268.46	4.334
269.13	4.312
269.64	4.294
270.04	4.277
270.5	4.256
270.88	4.241
271.35	4.221
271.69	4.203
272.03	4.184
272.37	4.165
272.71	4.147
273.06	4.128
273.32	4.109
273.57	4.091
273.91	4.072
274.25	4.053
274.59	4.035
274.81	4.019
275.1	3.997
275.28	3.979
275.45	3.96
275.68	3.94
275.96	3.923
276.3	3.904
276.64	3.885
276.98	3.867
277.32	3.848
277.84	3.829
278.35	3.811
278.86	3.794
279.48	3.776
280.05	3.759
280.74	3.742
281.37	3.726
282.1	3.711
283.13	3.697
283.98	3.68
284.83	3.665
285.79	3.652
286.71	3.634
287.57	3.618
288.42	3.603
289.27	3.587
289.95	3.57
290.73	3.553
291.32	3.539
292	3.522
292.52	3.506
293.03	3.489
293.54	3.473
294.05	3.456
294.58	3.437
294.96	3.421
295.42	3.402
295.78	3.386
296.18	3.366
296.61	3.346
296.95	3.332
297.34	3.312
297.81	3.29
298.15	3.271
298.49	3.253
298.92	3.232
299.34	3.218
299.85	3.201
300.37	3.182
300.88	3.164
301.39	3.147
301.79	3.131
302.24	3.114
302.76	3.095
303.27	3.079
303.78	3.062
304.29	3.045
304.8	3.029
305.32	3.012
305.83	2.996
306.34	2.979
307.02	2.962
307.71	2.946
308.3	2.93
308.9	2.913
309.48	2.895
310.1	2.879
310.72	2.864
311.46	2.846
312.09	2.83
312.83	2.815
313.51	2.801
314.36	2.784
