Uv/Vis Spectrum: Neopentylbenzene
Formula: C11H16
CAS: 1007-26-7
Boiling point: 186
Instrument: Spectronom 201 UV
Origin: INSTITUTE OF ENERGY PROBLEMS OF CHEMICAL PHYSICS, RAS
Wavelength (nm)	Logarithm epsilon
206.194	3.46122
206.591	3.50354
207.165	3.54378
207.879	3.58082
208.696	3.61353
209.58	3.64079
210.494	3.66148
211.401	3.67449
211.401	3.67449
212.103	3.66506
212.823	3.64694
213.549	3.62149
214.268	3.59007
214.968	3.55403
215.637	3.51474
216.262	3.47354
216.832	3.4318
217.333	3.39088
217.754	3.35213
218.081	3.3169
218.081	3.3169
218.357	3.26857
218.633	3.22024
218.91	3.17192
219.187	3.12359
219.464	3.07526
219.743	3.02693
220.022	2.9786
220.302	2.93028
220.302	2.93028
220.476	2.88835
220.653	2.84651
220.832	2.80474
221.013	2.76305
221.197	2.72142
221.384	2.67986
221.573	2.63835
221.766	2.59689
221.96	2.55549
222.158	2.51413
222.358	2.4728
222.561	2.43152
222.767	2.39026
222.976	2.34903
223.188	2.30781
223.402	2.26662
223.62	2.22543
223.84	2.18426
224.064	2.14308
224.291	2.1019
224.521	2.06072
224.754	2.01952
224.99	1.97831
225.229	1.93708
225.471	1.89582
225.717	1.85453
225.966	1.81321
226.219	1.77184
226.475	1.73044
226.734	1.68898
226.996	1.64748
226.996	1.64748
227.354	1.60713
227.785	1.56371
228.312	1.52192
228.961	1.48645
229.755	1.46199
230.718	1.45323
230.718	1.45323
231.46	1.47853
232.172	1.50733
232.857	1.53902
233.518	1.57297
234.158	1.60858
234.781	1.6452
235.39	1.68224
235.987	1.71906
236.576	1.75504
237.161	1.78957
237.161	1.78957
238.066	1.83065
239.258	1.88783
239.889	1.93215
239.889	1.93215
240.822	1.95661
241.751	1.99373
242.629	2.02926
242.629	2.02926
243.779	2.05725
244.663	2.06729
245.975	2.06081
245.975	2.06081
245.976	2.05566
245.977	2.05038
245.979	2.0448
245.979	2.0448
246.046	2.04485
246.12	2.04489
246.196	2.04494
246.196	2.04494
246.884	2.00651
247.514	1.97372
248.138	1.95067
248.803	1.94147
249.561	1.95021
250.461	1.98102
250.461	1.98102
250.976	2.02337
251.432	2.06276
251.935	2.09558
252.592	2.11819
253.509	2.12699
253.509	2.12699
253.62	2.1202
253.676	2.11111
253.722	2.09191
253.722	2.09191
253.825	2.09197
253.931	2.09204
254.042	2.09211
254.042	2.09211
254.095	2.08
254.211	2.06978
254.487	2.05269
254.487	2.05269
255.338	2.03828
256	2.0412
256.521	2.05755
256.95	2.08344
257.333	2.11497
257.721	2.14826
258.16	2.1794
258.698	2.20451
258.698	2.20451
259.248	2.20243
259.589	2.19468
260.025	2.17076
260.025	2.17076
260.567	2.12001
261.111	2.06925
261.655	2.0185
262.201	1.96774
262.75	1.91699
262.75	1.91699
263.465	1.90402
263.942	1.9043
264.243	1.91479
264.432	1.93247
264.57	1.9543
264.719	1.97727
264.942	1.99834
265.302	2.01448
265.859	2.02266
265.859	2.02266
266.407	1.97776
266.903	1.93026
267.393	1.87763
267.393	1.87763
267.875	1.84592
268.36	1.81421
268.85	1.7825
268.85	1.7825
268.97	1.76848
269.08	1.75482
269.196	1.73887
269.333	1.71799
269.508	1.68951
269.737	1.65079
270.035	1.59918
270.419	1.53202
270.904	1.44666
271.507	1.34044
271.507	1.34044
271.862	1.29843
272.231	1.25684
272.615	1.21563
273.015	1.17473
273.432	1.13411
273.867	1.09371
274.321	1.05348
274.795	1.01338
275.29	0.973345
275.807	0.93334
