Uv/Vis Spectrum: Benzene, 1-ethyl-4-nitro-
Formula: C8H9NO2
CAS: 100-12-9
Instrument: Zeiss VSU-1
Origin: INSTITUTE OF ENERGY PROBLEMS OF CHEMICAL PHYSICS, RAS
Wavelength (nm)	Logarithm epsilon
208.96	3.737
210.07	3.737
211.19	3.737
212.33	3.736
213.35	3.731
214.51	3.73
215.55	3.726
216.6	3.721
217.52	3.714
218.59	3.709
219.4	3.7
219.94	3.69
220.49	3.679
221.04	3.669
221.59	3.658
222.14	3.647
222.56	3.634
222.98	3.62
223.26	3.607
223.54	3.593
223.82	3.578
224.24	3.563
224.52	3.547
224.95	3.531
225.38	3.514
225.66	3.496
226.24	3.48
226.67	3.463
227.1	3.443
227.54	3.422
228.12	3.402
228.27	3.379
229.15	3.363
229.89	3.341
230.79	3.318
231.54	3.296
232.6	3.276
233.67	3.26
234.9	3.242
236.31	3.242
238.05	3.249
239.33	3.26
240.46	3.28
241.6	3.296
242.76	3.314
243.76	3.335
244.6	3.355
245.44	3.374
246.12	3.395
247.32	3.41
248.18	3.429
248.87	3.447
249.57	3.465
250.45	3.482
250.98	3.498
251.51	3.514
252.05	3.529
252.76	3.543
253.3	3.558
253.85	3.571
254.39	3.584
254.76	3.599
255.3	3.611
255.86	3.623
256.41	3.637
257.15	3.648
257.52	3.661
257.9	3.673
258.46	3.683
259.02	3.694
259.4	3.705
259.97	3.715
260.16	3.726
260.73	3.736
261.31	3.745
261.69	3.755
262.27	3.764
262.66	3.774
263.04	3.783
263.63	3.791
264.22	3.799
264.61	3.808
265.2	3.817
265.6	3.825
266.19	3.833
266.79	3.84
267.6	3.847
267.8	3.856
268.61	3.863
269.01	3.871
269.42	3.878
270.03	3.886
270.44	3.893
271.27	3.899
272.1	3.906
272.93	3.912
273.78	3.918
275.05	3.923
276.33	3.929
277.84	3.932
279.81	3.934
281.8	3.936
283.6	3.933
285.42	3.931
286.8	3.926
288.19	3.922
289.37	3.916
291.02	3.91
291.74	3.904
292.94	3.898
293.91	3.891
294.64	3.884
295.62	3.877
296.36	3.871
297.1	3.864
297.85	3.856
298.85	3.849
299.6	3.841
300.36	3.833
301.12	3.825
301.89	3.817
302.66	3.808
303.44	3.799
304.21	3.79
304.73	3.781
305.52	3.772
306.57	3.763
307.1	3.753
307.63	3.743
308.43	3.733
308.97	3.722
309.78	3.711
310.59	3.7
310.86	3.689
311.68	3.677
312.22	3.665
312.77	3.652
313.32	3.64
313.88	3.627
314.43	3.613
314.99	3.599
315.55	3.584
316.11	3.57
316.67	3.554
317.24	3.538
318.37	3.486
319.23	3.469
320.09	3.45
320.67	3.429
321.54	3.407
322.41	3.385
323.29	3.363
324.18	3.338
325.06	3.314
325.96	3.289
326.86	3.26
328.36	3.231
329.28	3.2
332.35	3.141
333.91	3.108
335.8	3.072
337.72	3.039
339.65	2.997
341.61	2.957
343.26	2.898
