Uv/Vis Spectrum: Cyanoallene
Formula: C4H3N
CAS: 1001-56-5
Boiling point: 50-51.5/ 50 mm
Instrument: Zeiss PMQ II
Origin: INSTITUTE OF ENERGY PROBLEMS OF CHEMICAL PHYSICS, RAS
Wavelength (nm)	Logarithm epsilon
201.423	3.941
202.923	3.872
204.423	3.816
205.923	3.768
207.423	3.726
208.923	3.686
210.423	3.648
211.923	3.608
213.423	3.565
214.923	3.519
216.423	3.469
217.923	3.415
219.423	3.356
220.923	3.293
222.423	3.227
223.923	3.158
225.423	3.088
226.923	3.017
228.423	2.948
229.897	2.884
231.397	2.814
232.897	2.748
234.397	2.683
235.897	2.616
237.397	2.546
238.897	2.471
240.397	2.391
241.897	2.306
243.397	2.215
244.897	2.12
246.397	2.022
247.897	1.921
249.397	1.818
250.897	1.716
252.397	1.616
253.897	1.519
255.397	1.426
256.897	1.339
258.397	1.259
259.897	1.187
261.397	1.123
262.897	1.068
264.397	1.02
265.897	0.98
267.397	0.945
268.897	0.915
270.397	0.885
271.897	0.853
273.397	0.815
274.897	0.765
