Uv/Vis Spectrum: Benzylamine
Formula: C7H9N
CAS: 100-46-9
Boiling point: 185; 90(12)
Instrument: n.i.g.
Origin: INSTITUTE OF ENERGY PROBLEMS OF CHEMICAL PHYSICS, RAS
Wavelength (nm)	Logarithm epsilon
272.943	1.00776
272.864	1.03924
272.743	1.06594
272.473	1.11078
272.473	1.11078
272.404	1.14036
272.336	1.17005
272.267	1.19996
272.267	1.19996
272.148	1.21047
272.023	1.22109
271.887	1.23192
271.887	1.23192
271.694	1.27028
271.501	1.30877
271.309	1.34735
271.117	1.38597
271.117	1.38597
270.725	1.44359
270.47	1.4823
270.293	1.51122
270.139	1.53951
269.952	1.57629
269.952	1.57629
269.801	1.59297
269.665	1.60878
269.51	1.62816
269.302	1.65553
269.009	1.69535
268.597	1.75204
268.034	1.83006
268.034	1.83006
267.659	1.87075
267.276	1.91165
266.888	1.95266
266.888	1.95266
266.421	1.9896
265.949	2.02668
265.475	2.06384
265	2.10105
265	2.10105
264.726	2.11419
264.603	2.12149
264.525	2.12921
264.525	2.12921
264.405	2.13162
264.275	2.13413
264.141	2.13686
264.141	2.13686
263.959	2.13687
263.772	2.13688
263.576	2.13689
263.576	2.13689
263.303	2.12832
263.027	2.11975
262.741	2.11118
262.741	2.11118
262.334	2.10852
262.096	2.10754
261.825	2.10742
261.825	2.10742
261.602	2.10852
261.381	2.10984
261.159	2.11127
261.159	2.11127
261.02	2.1132
260.871	2.11524
260.718	2.11749
260.718	2.11749
260.652	2.12083
260.586	2.12417
260.52	2.12751
260.52	2.12751
260.043	2.13672
259.668	2.1454
259.078	2.16097
259.078	2.16097
258.991	2.16431
258.898	2.16765
258.796	2.171
258.796	2.171
258.352	2.17535
258.078	2.17895
257.737	2.18488
257.737	2.18488
257.346	2.18625
256.724	2.18678
255.344	2.18693
255.344	2.18693
254.888	2.18413
254.659	2.18216
254.457	2.17935
254.457	2.17935
254.409	2.17742
254.351	2.1754
254.289	2.17316
254.289	2.17316
254.028	2.17026
253.87	2.16767
253.68	2.16318
253.68	2.16318
252.035	2.09761
251.282	2.06813
250.92	2.05271
250.92	2.05271
250.776	2.04939
250.633	2.04605
250.49	2.04273
250.49	2.04273
250.444	2.04382
250.409	2.03892
250.399	2.03742
250.388	2.04513
250.33	2.03581
250.328	2.04655
250.328	2.04655
250.302	2.05038
250.267	2.05432
250.227	2.05848
250.143	2.03273
250.143	2.03273
249.98	2.02335
249.817	2.01417
249.654	2.00511
248.885	1.98322
248.851	1.98131
248.825	1.97941
248.804	1.9775
248.804	1.9775
248.494	1.96784
248.242	1.96083
248.04	1.9537
248.04	1.9537
246.8	1.91523
245.945	1.88955
245.09	1.86281
245.09	1.86281
244.681	1.85344
244.278	1.84428
243.884	1.83523
243.884	1.83523
243.613	1.82716
243.343	1.81919
243.074	1.81144
243.074	1.81144
242.623	1.80286
242.419	1.7983
242.288	1.79384
242.288	1.79384
241.965	1.78828
241.646	1.78293
241.337	1.77769
241.337	1.77769
241.149	1.77246
240.964	1.76722
240.789	1.76199
240.789	1.76199
240.676	1.762
240.569	1.762
240.469	1.76201
240.469	1.76201
240.437	1.75869
240.413	1.75548
240.393	1.75248
240.393	1.75248
240.187	1.75025
239.981	1.74823
239.775	1.74632
239.775	1.74632
239.743	1.74348
239.719	1.74074
239.7	1.73822
239.531	1.73441
239.531	1.73441
239.531	1.72807
239.53	1.72152
239.529	1.71486
239.346	1.73361
239.165	1.73302
238.992	1.73254
238.992	1.73254
238.756	1.72841
238.53	1.72448
238.307	1.72066
238.307	1.72066
237.782	1.71503
237.287	1.71098
236.403	1.70505
236.186	1.70316
235.573	1.70753
235.163	1.71114
234.604	1.71709
234.604	1.71709
234.142	1.72509
233.844	1.73064
233.574	1.7348
233.574	1.7348
233.361	1.74006
233.145	1.74532
232.922	1.75058
232.922	1.75058
232.78	1.75059
232.635	1.7506
232.482	1.75061
232.482	1.75061
232.464	1.75445
232.443	1.75839
232.413	1.76254
232.413	1.76254
232.167	1.77036
231.88	1.7802
231.542	1.79025
231.542	1.79025
231.366	1.7979
231.182	1.80458
230.833	1.81605
230.833	1.81605
230.811	1.81939
230.781	1.82273
230.748	1.82607
230.748	1.82607
230.746	1.80652
230.695	1.80622
230.661	1.8286
230.659	1.80412
230.607	1.79842
230.57	1.83135
230.472	1.8342
230.472	1.8342
230.455	1.83944
230.434	1.84469
230.405	1.84994
230.405	1.84994
230.291	1.85473
230.215	1.85931
230.114	1.8676
230.114	1.8676
230.074	1.8681
230.027	1.8687
229.976	1.86952
229.976	1.86952
229.543	1.89528
229.213	1.91743
228.703	1.95496
228.703	1.95496
228.604	1.97111
228.531	1.99064
228.422	2.03031
228.422	2.03031
228.287	2.04081
228.148	2.05131
228.002	2.06181
228.002	2.06181
227.765	2.1044
227.527	2.14702
227.287	2.18974
227.042	2.23259
227.042	2.23259
227.005	2.24882
226.961	2.26516
226.913	2.28171
226.913	2.28171
226.79	2.29844
226.675	2.31505
226.532	2.3377
226.322	2.37256
226.008	2.42578
225.553	2.50353
225.553	2.50353
225.091	2.56653
224.766	2.61063
224.533	2.6417
224.346	2.66567
224.161	2.68841
223.931	2.71584
223.931	2.71584
223.868	2.7335
223.804	2.75127
223.741	2.76925
223.272	2.78693
223.071	2.81031
222.929	2.82478
222.728	2.84276
222.728	2.84276
222.712	2.8485
222.692	2.85435
222.665	2.86041
222.665	2.86041
222.536	2.86425
222.404	2.8682
222.264	2.87236
222.264	2.87236
222.216	2.88508
222.166	2.89176
222.074	2.89812
222.074	2.89812
222.015	2.95534
222.015	2.9501
222.014	2.94485
222.014	2.93961
222.014	2.93961
221.963	2.91114
221.918	2.9388
221.852	2.92438
221.827	2.93821
221.742	2.93772
221.742	2.93772
221.551	2.94155
221.487	2.94599
221.419	2.95064
221.345	2.95539
