Uv/Vis Spectrum: Cyclohexene, 4-ethenyl-
Formula: C8H12
CAS: 100-40-3
Boiling point: 129-130
Instrument: Zeiss PMQ II
Origin: INSTITUTE OF ENERGY PROBLEMS OF CHEMICAL PHYSICS, RAS
Wavelength (nm)	Logarithm epsilon
182.81	4.272
182.88	4.272
182.95	4.27
183.03	4.267
183.1	4.265
183.17	4.265
183.24	4.263
183.31	4.261
183.38	4.261
183.46	4.259
183.53	4.257
183.6	4.255
183.67	4.255
183.74	4.253
183.81	4.25
183.89	4.25
183.96	4.248
184.03	4.246
184.1	4.246
184.18	4.244
184.25	4.242
184.32	4.24
184.39	4.24
184.47	4.238
184.54	4.236
184.61	4.236
184.68	4.233
184.76	4.231
184.83	4.229
184.9	4.227
184.97	4.223
185.22	4.215
185.41	4.206
185.71	4.199
186	4.189
186.26	4.184
186.6	4.176
186.89	4.165
187.19	4.157
187.49	4.146
187.79	4.138
188.09	4.127
188.4	4.116
188.7	4.106
189	4.095
189.31	4.084
189.62	4.072
189.92	4.059
190.23	4.044
190.54	4.025
190.85	4.012
191.16	3.997
191.47	3.982
191.79	3.967
192.1	3.948
192.42	3.929
192.73	3.91
193.05	3.891
193.37	3.865
193.69	3.844
194.01	3.814
194.33	3.793
194.66	3.769
194.98	3.741
195.3	3.72
195.63	3.697
195.96	3.669
196.29	3.646
196.62	3.622
196.95	3.588
197.28	3.565
197.61	3.539
197.94	3.509
198.28	3.482
198.62	3.456
198.95	3.431
199.29	3.399
199.63	3.369
199.97	3.354
200.31	3.337
200.66	3.316
201	3.292
201.35	3.269
201.69	3.243
202.04	3.218
202.39	3.181
202.74	3.152
203.09	3.124
203.44	3.088
203.8	3.056
204.15	3.015
204.51	2.968
204.87	2.926
205.23	2.883
205.59	2.834
205.95	2.79
206.31	2.721
206.67	2.675
207.04	2.628
207.41	2.577
207.77	2.515
208.14	2.47
208.51	2.413
208.88	2.362
209.26	2.291
209.63	2.242
210.01	2.187
210.38	2.136
210.76	2.074
211.14	2.029
211.52	1.989
211.91	1.942
212.29	1.899
212.68	1.868
213.06	1.838
213.45	1.812
213.84	1.789
214.23	1.77
214.62	1.755
215.02	1.736
215.41	1.725
215.81	1.716
216.21	1.706
216.61	1.695
217.01	1.687
217.41	1.682
217.82	1.676
218.22	1.672
218.63	1.665
219.04	1.663
219.45	1.661
219.86	1.659
220.27	1.657
220.69	1.655
221.1	1.657
221.52	1.657
221.94	1.659
222.36	1.661
222.79	1.661
223.21	1.661
223.64	1.661
224.06	1.661
224.49	1.661
224.92	1.661
225.36	1.661
225.79	1.659
226.23	1.652
226.66	1.65
227.1	1.644
227.54	1.638
227.99	1.629
228.43	1.621
228.88	1.612
229.33	1.606
229.78	1.597
230.23	1.584
230.68	1.574
231.14	1.561
231.59	1.546
232.05	1.535
232.51	1.525
232.97	1.512
233.44	1.493
233.9	1.478
234.37	1.461
234.84	1.44
235.31	1.42
235.79	1.399
236.26	1.376
236.74	1.348
237.22	1.325
237.7	1.295
238.18	1.252
238.67	1.216
239.16	1.173
239.65	1.124
