Uv/Vis Spectrum: 1,4-Dinitrobenzene
Formula: C6H4N2O4
CAS: 100-25-4
Melting point: 172
Instrument: Zeiss PMQ II
Origin: INSTITUTE OF ENERGY PROBLEMS OF CHEMICAL PHYSICS, RAS
Wavelength (nm)	Logarithm epsilon
201.16	4.247
201.24	4.247
201.33	4.244
201.42	4.242
201.51	4.24
201.6	4.238
201.68	4.236
201.77	4.234
201.86	4.232
201.95	4.229
202.04	4.227
202.13	4.227
202.21	4.225
202.3	4.223
202.39	4.221
202.48	4.219
202.57	4.217
202.66	4.215
202.75	4.212
202.84	4.21
202.93	4.21
203.28	4.189
203.82	4.172
204.36	4.155
204.91	4.136
205.46	4.118
206.01	4.097
206.56	4.065
207.11	4.037
207.67	4.008
208.24	3.975
208.8	3.943
209.37	3.909
209.94	3.879
210.52	3.847
211.09	3.822
211.67	3.796
212.26	3.775
212.85	3.754
213.44	3.734
214.03	3.721
214.63	3.709
215.23	3.696
215.83	3.687
216.44	3.679
217.05	3.67
217.67	3.668
218.28	3.662
218.9	3.66
219.53	3.66
220.16	3.666
220.79	3.657
221.43	3.662
222.06	3.668
222.71	3.672
223.35	3.675
224	3.679
224.66	3.681
225.32	3.685
225.98	3.689
226.65	3.692
227.32	3.698
227.99	3.702
228.67	3.709
229.35	3.711
230.03	3.719
230.72	3.728
231.42	3.732
232.12	3.743
232.82	3.751
233.53	3.762
234.24	3.773
234.95	3.781
235.67	3.792
236.4	3.803
237.13	3.813
237.86	3.824
238.6	3.835
239.34	3.847
240.09	3.858
240.84	3.871
241.6	3.884
242.36	3.894
243.12	3.907
243.89	3.922
244.67	3.935
245.45	3.948
246.24	3.958
247.03	3.971
247.82	3.986
248.62	3.997
249.43	4.008
250.24	4.02
251.06	4.033
251.88	4.046
252.71	4.054
253.54	4.067
254.38	4.076
255.23	4.08
256.07	4.089
256.93	4.097
257.79	4.104
258.66	4.112
259.53	4.118
260.41	4.123
261.29	4.127
262.19	4.127
263.08	4.125
263.99	4.121
264.89	4.114
265.81	4.108
266.73	4.097
267.66	4.086
268.59	4.078
269.54	4.063
270.48	4.048
271.44	4.035
272.4	4.014
273.37	3.995
274.34	3.971
275.33	3.943
276.31	3.914
277.31	3.882
278.31	3.847
279.32	3.815
280.34	3.783
281.37	3.745
282.4	3.704
283.44	3.66
284.49	3.628
285.55	3.596
286.61	3.561
287.68	3.532
288.76	3.506
289.85	3.478
290.95	3.45
292.05	3.431
293.17	3.412
294.29	3.393
295.42	3.38
296.56	3.367
297.7	3.357
298.86	3.346
300.03	3.331
301.2	3.318
302.39	3.307
303.58	3.295
304.78	3.28
306	3.267
307.22	3.246
308.45	3.226
309.69	3.207
310.94	3.188
312.21	3.164
313.48	3.143
314.76	3.12
316.06	3.092
317.36	3.066
318.67	3.034
320	3.004
321.34	2.974
322.69	2.938
324.04	2.906
325.42	2.872
326.8	2.834
328.19	2.804
329.6	2.793
331.02	2.78
332.45	2.752
333.89	2.731
335.35	2.71
336.82	2.691
338.3	2.671
339.79	2.656
341.3	2.637
342.82	2.627
344.36	2.616
345.91	2.605
347.47	2.595
349.04	2.584
350.64	2.573
352.24	2.556
353.86	2.543
355.5	2.524
357.15	2.503
358.82	2.486
360.5	2.458
362.19	2.428
363.91	2.4
365.64	2.379
367.38	2.347
369.15	2.317
370.93	2.285
372.73	2.255
374.54	2.215
376.37	2.183
378.22	2.144
380.09	2.11
381.98	2.069
383.89	2.018
385.81	1.978
387.76	1.929
389.72	1.886
391.71	1.837
393.71	1.775
395.74	1.722
397.79	1.666
399.85	1.587
401.94	1.515
404.06	1.45
406.19	1.369
408.35	1.293
