Uv/Vis Spectrum: Borazine, 1,3,5-trimethyl-
Formula: C3H12B3N3
CAS: 1004-35-9
Instrument: McPherson 225
Origin: INSTITUTE OF ENERGY PROBLEMS OF CHEMICAL PHYSICS, RAS
Wavelength (nm)	Logarithm epsilon
119.21	4.453
119.26	4.453
119.31	4.453
119.35	4.453
119.4	4.453
119.45	4.453
119.5	4.453
119.55	4.453
119.6	4.453
119.8	4.453
119.95	4.453
120.11	4.449
120.26	4.449
120.41	4.449
120.56	4.449
120.71	4.449
120.87	4.449
121.02	4.449
121.17	4.446
121.33	4.446
121.48	4.446
121.64	4.446
121.79	4.446
121.95	4.442
122.1	4.442
122.26	4.439
122.42	4.439
122.57	4.439
122.73	4.439
122.89	4.435
123.05	4.435
123.21	4.435
123.37	4.435
123.53	4.435
123.69	4.435
123.85	4.432
124.01	4.432
124.17	4.425
124.33	4.425
124.49	4.421
124.65	4.421
124.82	4.418
124.98	4.415
125.14	4.415
125.31	4.411
125.47	4.411
125.64	4.411
125.8	4.404
125.97	4.404
126.14	4.401
126.3	4.401
126.47	4.401
126.64	4.397
126.81	4.397
126.98	4.397
127.15	4.394
127.32	4.397
127.49	4.39
127.66	4.39
127.83	4.394
128	4.394
128.17	4.39
128.34	4.387
128.51	4.383
128.69	4.383
128.86	4.38
129.04	4.38
129.21	4.38
129.39	4.376
129.56	4.373
129.74	4.373
129.91	4.373
130.09	4.37
130.27	4.366
130.45	4.363
130.63	4.363
130.8	4.359
130.98	4.356
131.16	4.352
131.34	4.349
131.53	4.349
131.71	4.349
131.89	4.345
132.07	4.345
132.25	4.338
132.44	4.335
132.62	4.331
132.81	4.328
132.99	4.324
133.18	4.321
133.36	4.318
133.55	4.314
133.74	4.311
133.92	4.311
134.11	4.307
134.3	4.304
134.49	4.297
134.68	4.293
134.87	4.29
135.06	4.286
135.25	4.283
135.44	4.279
135.64	4.279
135.83	4.276
136.02	4.266
136.22	4.262
136.41	4.259
136.61	4.255
136.8	4.252
137	4.248
137.2	4.241
137.39	4.234
137.59	4.227
137.79	4.217
137.99	4.21
138.19	4.203
138.59	4.189
138.79	4.179
139.2	4.162
139.4	4.155
139.61	4.144
139.81	4.137
140.01	4.124
140.22	4.113
140.43	4.099
140.63	4.089
140.84	4.079
141.05	4.072
141.26	4.065
141.47	4.061
141.68	4.051
141.89	4.047
142.1	4.044
142.31	4.04
142.52	4.037
142.74	4.033
142.95	4.033
143.16	4.033
143.38	4.033
143.6	4.03
144.03	4.027
144.25	4.027
144.46	4.02
144.68	4.023
144.9	4.02
145.12	4.013
145.34	4.009
145.57	4.006
146.01	4.002
146.24	4.002
146.46	3.999
146.69	3.988
146.91	3.988
147.14	3.978
147.36	3.968
147.59	3.961
147.82	3.957
148.05	3.943
148.28	3.937
148.51	3.923
148.74	3.909
148.97	3.898
149.21	3.881
149.44	3.874
149.68	3.864
149.91	3.853
150.15	3.846
150.38	3.843
150.62	3.84
150.86	3.829
151.1	3.826
151.34	3.808
151.58	3.801
151.82	3.794
152.06	3.781
152.3	3.774
152.55	3.76
152.79	3.743
153.04	3.729
153.28	3.718
153.53	3.715
153.77	3.722
154.02	3.743
154.27	3.743
154.77	3.718
155.02	3.694
155.28	3.677
155.53	3.663
155.78	3.652
156.04	3.646
156.29	3.635
156.55	3.632
156.81	3.632
157.06	3.632
157.32	3.632
157.58	3.639
157.84	3.642
158.1	3.639
158.37	3.646
158.63	3.646
158.89	3.646
159.16	3.646
159.43	3.646
159.69	3.646
159.96	3.642
160.23	3.642
160.5	3.639
160.77	3.639
161.04	3.635
161.31	3.632
161.58	3.625
161.86	3.621
162.13	3.614
162.41	3.611
162.69	3.607
162.96	3.604
163.24	3.604
163.52	3.607
163.8	3.607
164.08	3.611
164.37	3.614
164.65	3.618
164.93	3.625
165.22	3.628
165.51	3.625
165.79	3.632
166.08	3.635
166.37	3.635
166.66	3.635
166.95	3.632
167.25	3.628
167.54	3.628
167.84	3.628
168.13	3.621
168.43	3.618
169.02	3.611
169.32	3.607
169.62	3.611
169.93	3.621
170.23	3.632
170.53	3.646
170.84	3.663
171.15	3.68
171.45	3.697
171.76	3.708
172.07	3.722
172.38	3.743
172.69	3.763
173.01	3.781
173.32	3.801
173.64	3.822
173.95	3.84
174.27	3.86
174.59	3.878
174.91	3.898
175.23	3.916
175.55	3.937
175.88	3.947
176.2	3.964
176.53	3.985
176.85	4.006
177.18	4.023
177.51	4.054
177.84	4.061
178.17	4.079
178.51	4.099
178.84	4.117
179.18	4.137
179.51	4.155
179.85	4.172
180.19	4.193
180.53	4.21
180.88	4.227
181.22	4.245
181.56	4.266
181.91	4.283
182.26	4.3
182.61	4.318
182.96	4.335
183.31	4.356
183.66	4.363
184.01	4.373
184.37	4.383
184.73	4.39
185.08	4.401
185.44	4.397
185.8	4.404
186.17	4.408
186.53	4.408
187.26	4.404
187.63	4.404
188	4.401
188.37	4.39
188.74	4.383
189.12	4.376
189.49	4.37
189.87	4.359
190.25	4.345
190.63	4.328
191.01	4.311
191.39	4.297
191.78	4.279
192.16	4.259
192.55	4.234
192.94	4.217
193.33	4.196
193.72	4.172
194.12	4.13
194.51	4.096
194.91	4.072
195.31	4.037
195.71	4.02
196.11	3.999
196.52	3.995
196.92	3.985
197.33	3.961
197.74	3.95
198.15	3.937
198.56	3.923
198.97	3.909
199.39	3.895
199.81	3.881
200.23	3.864
200.65	3.846
201.07	3.829
201.49	3.819
201.92	3.805
202.35	3.781
202.78	3.749
203.21	3.725
203.64	3.697
204.08	3.673
204.52	3.642
204.96	3.621
205.4	3.611
205.84	3.587
206.28	3.559
206.73	3.535
207.18	3.51
207.63	3.483
208.08	3.448
208.54	3.424
208.99	3.389
209.45	3.365
209.91	3.337
210.38	3.306
210.84	3.268
211.31	3.247
211.78	3.199
212.25	3.15
212.72	3.122
213.2	3.095
213.67	3.077
214.15	3.064
214.63	3.057
215.12	3.039
215.6	3.025
216.09	3.008
216.58	3.015
217.07	3.025
217.57	3.015
218.07	2.977
218.57	2.953
219.07	2.946
219.57	2.928
220.08	2.894
220.59	2.87
221.1	2.887
221.61	2.89
222.13	2.825
222.64	2.804
223.16	2.793
223.69	2.741
224.21	2.631
224.74	2.53
225.27	2.52
225.8	2.516
226.34	2.495
226.88	2.475
227.42	2.395
227.96	2.249
228.51	2.173
229.06	2.045
229.61	1.948
230.16	1.861
230.72	1.758
231.28	1.671
231.84	1.532
232.4	1.446
232.97	1.321
