Uv/Vis Spectrum: Aniline, N-methyl-
Formula: C7H9N
CAS: 100-61-8
Melting point: -57
Boiling point: 196.2
Instrument: n.i.g.
Origin: INSTITUTE OF ENERGY PROBLEMS OF CHEMICAL PHYSICS, RAS
Wavelength (nm)	Logarithm epsilon
320.822	0.542925
320.689	0.610735
320.614	0.61184
320.438	0.614433
320.414	0.643975
320.339	0.703369
320.199	0.723168
319.893	0.762784
319.56	0.838761
319.188	0.899049
319.111	0.93594
318.943	1.00989
318.767	1.08397
318.612	1.10723
318.304	1.15412
318.277	1.1709
318.2	1.20446
318.125	1.20557
317.952	1.20816
317.927	1.2284
317.85	1.26924
317.626	1.30932
317.178	1.40887
317.152	1.4291
317.076	1.46995
317.002	1.47106
316.83	1.47365
316.586	1.53252
316.214	1.6113
315.951	1.66155
315.84	1.68476
315.502	1.73065
314.999	1.80997
314.482	1.88953
314.265	1.91905
313.789	1.99076
313.496	2.04627
313.343	2.04863
313.257	2.04997
313.047	2.10233
312.942	2.12851
311.814	2.27659
311.274	2.34608
311.037	2.37217
310.946	2.37993
310.811	2.38463
310.732	2.38698
310.438	2.43341
310.292	2.4568
309.773	2.51114
309.536	2.54576
309.386	2.54813
309.302	2.54946
308.963	2.61
308.455	2.6995
308.385	2.7006
308.223	2.7032
308.197	2.71192
308.121	2.72938
307.844	2.75423
307.268	2.80424
307.243	2.81575
307.169	2.83915
307.022	2.8415
306.729	2.84621
306.559	2.86771
306.196	2.911
306.038	2.91856
305.661	2.958
305.593	2.95911
305.433	2.9617
305.408	2.97145
305.334	2.99124
305.205	3.00275
304.925	3.02615
304.719	3.03767
304.289	3.06108
304.223	3.07091
304.067	3.09096
303.964	3.09331
303.739	3.09802
303.577	3.11414
303.234	3.14669
302.811	3.16362
302.058	3.19238
301.896	3.20155
301.555	3.22025
301.094	3.22779
300.709	3.23606
300.649	3.24053
300.51	3.24983
300.344	3.25218
299.99	3.2569
299.738	3.26351
298.954	3.27808
298.432	3.28309
297.708	3.29189
297.137	3.30196
296.805	3.30938
296.642	3.30983
296.296	3.31108
295.761	3.31659
294.473	3.3323
293.486	3.33191
291.51	3.33075
291.315	3.32798
290.904	3.32206
290.786	3.32163
290.528	3.3204
290.466	3.31805
290.32	3.31336
290.169	3.31101
289.851	3.30633
289.789	3.30297
289.644	3.29594
289.167	3.29093
288.879	3.28691
288.817	3.28289
288.673	3.27484
288.519	3.27383
288.19	3.27151
288.122	3.26846
288.004	3.25574
287.818	3.25575
287.432	3.25577
287.339	3.25467
287.138	3.25209
287.113	3.24872
287.044	3.24169
286.916	3.23935
286.659	3.23466
286.382	3.23337
286.092	3.22966
286.036	3.22731
285.909	3.22262
285.376	3.21204
284.203	3.18612
284.179	3.18377
284.112	3.17908
283.819	3.17598
283	3.16168
282.761	3.15464
282.25	3.14057
282.072	3.13627
281.699	3.12684
281.511	3.12037
280.973	3.09902
280.612	3.09225
279.779	3.0729
279.726	3.07056
279.604	3.06586
279.027	3.05571
278.336	3.04478
278.284	3.04267
278.163	3.03808
277.663	3.03172
276.653	3.01869
276.477	3.01467
276.107	3.00664
275.966	3.00495
275.666	3.00129
275.525	3.00086
275.226	2.99963
275.204	2.99862
275.141	2.99628
274.917	2.99519
274.452	2.99262
274.278	2.98861
273.914	2.98057
273.535	2.97927
272.981	2.97525
272.897	2.97188
272.715	2.96486
272.549	2.96443
272.202	2.96321
272.119	2.96043
271.937	2.9545
271.604	2.95179
270.658	2.94752
270.322	2.94343
269.228	2.9335
268.788	2.9314
267.895	2.92685
267.431	2.92621
266.495	2.92491
266.443	2.92602
266.322	2.92861
266.022	2.92907
265.425	2.93034
265.018	2.93271
264.208	2.93745
264.083	2.94024
263.821	2.9462
263.635	2.94789
263.249	2.95126
263.203	2.95361
263.096	2.95832
262.881	2.96303
262.452	2.97245
262.276	2.97892
261.826	2.98993
261.594	3.00313
261.115	3.0299
261.039	3.03102
260.873	3.03361
260.854	3.03764
260.799	3.04569
260.723	3.0468
260.572	3.0494
260.397	3.05961
260.183	3.07727
260.032	3.083
259.718	3.09475
259.495	3.10995
259.332	3.1243
259.282	3.12541
259.167	3.128
259.093	3.13482
258.945	3.14882
258.842	3.15396
258.634	3.16461
258.367	3.19484
257.872	3.25559
257.716	3.26501
257.27	3.29221
256.947	3.33519
256.286	3.42146
256.184	3.42381
255.98	3.42852
255.131	3.51176
254.215	3.60279
253.943	3.63204
253.904	3.63804
253.803	3.64041
253.747	3.64174
253.552	3.66182
253.464	3.67297
253.363	3.67534
253.307	3.67667
253.123	3.69749
253.024	3.7079
252.924	3.71026
252.868	3.7116
252.727	3.72436
252.657	3.73074
252.221	3.75413
252.065	3.76232
251.728	3.78886
251.56	3.80228
251.416	3.80801
251.336	3.81102
251.197	3.82378
251.127	3.83016
251.029	3.83252
250.973	3.83386
250.598	3.86319
250.404	3.8792
250.306	3.88156
250.251	3.8829
250.21	3.89095
250.183	3.89498
249.891	3.90872
249.823	3.91413
249.404	3.92566
249.187	3.93162
249.132	3.93632
249.105	3.93867
248.765	3.94819
248.61	3.95112
248.524	3.96129
248.474	3.96656
248.24	3.97473
248.118	3.979
247.926	3.98003
247.831	3.9807
247.79	3.9854
247.763	3.98775
247.34	3.99819
247.124	4.00356
246.909	4.01284
246.704	4.01902
246.241	4.02141
246.003	4.0298
246.002	4.0251
246.002	4.02276
245.815	4.03419
245.721	4.03653
245.492	4.03789
245.372	4.03857
244.78	4.04768
244.478	4.05238
244.023	4.05343
243.788	4.0541
243.696	4.05647
243.643	4.0578
242.722	4.05948
242.224	4.05957
241.547	4.0575
241.209	4.05628
241.027	4.0516
240.937	4.04925
240.407	4.04718
240.137	4.04595
240.047	4.04126
239.996	4.03891
239.509	4.03549
239.266	4.03359
238.96	4.0268
238.807	4.02322
238.63	4.02323
238.541	4.02323
238.363	4.01855
238.274	4.01621
238.098	4.01622
238.009	4.01622
237.971	4.01153
237.946	4.00918
237.819	4.00583
237.756	4.00416
237.58	4.00283
237.492	4.00216
237.453	3.99779
237.429	3.99546
236.963	3.98736
236.452	3.97639
236.239	3.96701
236.127	3.96232
235.916	3.96022
235.804	3.95899
233.138	3.88181
232.874	3.87529
232.798	3.8706
232.753	3.86826
232.584	3.86616
232.5	3.86492
231.794	3.84247
231.562	3.83512
231.525	3.82831
231.501	3.82472
231.298	3.82371
231.191	3.82306
230.483	3.80168
230.087	3.7916
228.365	3.73862
227.898	3.72531
227.392	3.70884
226.458	3.68179
226.308	3.67499
226.228	3.6714
225.533	3.65219
225.216	3.64195
225.145	3.63726
225.103	3.63491
224.945	3.63256
224.866	3.63124
224.682	3.62076
