Uv/Vis Spectrum: 1H-Pyrrole-2-carboxaldehyde
Formula: C5H5NO
CAS: 1003-29-8
Melting point: 44.4-44.9
Instrument: Bausch and Lomb Spectronic 505
Origin: INSTITUTE OF ENERGY PROBLEMS OF CHEMICAL PHYSICS, RAS
Wavelength (nm)	Logarithm epsilon
225.4	2.992
226.94	3.05
228.32	3.169
229.73	3.245
231.32	3.294
232.76	3.338
234.22	3.391
235.69	3.438
237.19	3.491
238.7	3.519
240.23	3.555
241.78	3.595
243.36	3.626
244.95	3.654
246.56	3.68
250.07	3.717
253.67	3.74
255.62	3.751
257.6	3.751
259.61	3.756
261.65	3.772
263.72	3.782
265.59	3.802
267.25	3.83
268.69	3.86
270.15	3.889
271.62	3.916
272.86	3.941
274.11	3.968
275.37	3.994
276.38	4.018
277.15	4.043
277.92	4.065
278.96	4.086
279.48	4.108
280.26	4.129
281.32	4.146
282.38	4.164
283.18	4.18
284.53	4.196
285.88	4.209
287.26	4.222
289.2	4.233
291.45	4.239
293.74	4.231
295.77	4.221
296.65	4.206
297.83	4.19
299.02	4.174
299.92	4.155
300.82	4.138
301.73	4.12
302.65	4.101
303.26	4.078
304.18	4.057
304.8	4.032
305.74	4.009
306.36	3.981
307.31	3.951
308.26	3.923
308.89	3.889
309.85	3.852
310.82	3.811
311.46	3.767
312.44	3.717
313.42	3.667
314.41	3.611
316.07	3.546
317.41	3.47
319.1	3.378
320.81	3.262
323.23	3.147
