Uv/Vis Spectrum: 3-Pyridinecarbonitrile
Formula: C6H4N2
CAS: 100-54-9
Melting point: 49
Instrument: unknown
Origin: INSTITUTE OF ENERGY PROBLEMS OF CHEMICAL PHYSICS, RAS
Wavelength (nm)	Logarithm epsilon
202.38	3.658
202.55	3.662
202.72	3.665
202.89	3.668
203.06	3.672
203.23	3.675
203.4	3.679
203.57	3.682
203.74	3.685
203.91	3.689
204.08	3.692
204.42	3.699
205.1	3.722
205.78	3.733
206.46	3.75
207.14	3.766
207.82	3.793
208.5	3.817
209.18	3.841
209.86	3.864
210.54	3.885
211.22	3.908
211.91	3.925
212.59	3.942
213.27	3.956
213.95	3.962
214.63	3.973
215.31	3.976
215.99	3.979
216.67	3.983
217.35	3.993
218.03	3.989
218.71	3.979
219.39	3.976
220.07	3.962
220.75	3.949
221.43	3.946
222.11	3.918
222.79	3.898
223.47	3.878
224.15	3.858
224.83	3.827
225.51	3.787
226.19	3.756
227.55	3.689
228.23	3.648
228.91	3.587
229.59	3.51
230.27	3.395
230.95	3.307
231.63	3.185
232.31	3.111
232.99	3.074
233.67	3.04
234.36	3.03
235.72	3.006
236.4	2.999
237.08	2.999
237.76	2.999
238.44	3.003
239.12	3.006
240.48	3.013
241.16	3.023
241.84	3.033
242.52	3.04
243.2	3.053
244.56	3.08
245.24	3.094
245.92	3.111
246.6	3.138
247.28	3.155
247.96	3.175
248.64	3.188
249.32	3.205
250	3.216
250.68	3.232
252.04	3.253
252.72	3.263
253.4	3.276
254.08	3.283
254.76	3.3
256.12	3.337
256.81	3.341
257.49	3.351
258.17	3.361
258.85	3.368
259.53	3.368
260.89	3.384
261.57	3.381
262.25	3.384
262.93	3.395
263.61	3.405
264.97	3.428
265.65	3.425
266.33	3.418
267.01	3.401
267.69	3.391
268.37	3.347
269.05	3.307
269.73	3.293
270.41	3.293
271.77	3.314
272.45	3.31
273.13	3.27
273.81	3.195
274.49	3.128
275.17	3.04
275.85	2.962
276.53	2.881
277.21	2.8
277.89	2.702
278.57	2.631
279.26	2.563
279.94	2.485
280.62	2.401
281.3	2.333
281.98	2.262
282.66	2.212
283.34	2.104
284.02	2.036
284.7	1.968
285.38	1.904
286.06	1.84
286.74	1.772
287.42	1.712
288.1	1.651
288.78	1.597
289.46	1.536
290.82	1.39
291.5	1.336
292.18	1.276
292.86	1.208
293.54	1.154
294.22	1.113
294.9	1.09
295.58	1.039
296.26	0.992
297.62	0.887
298.3	0.833
298.98	0.775
299.66	0.715
300.34	0.667
