Uv/Vis Spectrum: 4-Nitrophenol
Formula: C6H5NO3
CAS: 100-02-7
Melting point: 113.8
Instrument: n.i.g.
Origin: INSTITUTE OF ENERGY PROBLEMS OF CHEMICAL PHYSICS, RAS
Wavelength (nm)	Logarithm epsilon
447.915	1.20884
446.568	1.25098
444.356	1.30352
442.423	1.35263
442.423	1.35263
441.372	1.37248
440.017	1.41078
438.377	1.45363
438.377	1.45363
437.421	1.46486
436.758	1.47677
435.82	1.49955
435.82	1.49955
435.186	1.53344
434.384	1.56234
433.467	1.60587
433.467	1.60587
432.145	1.62717
430.475	1.65996
428.115	1.70044
428.115	1.70044
425.556	1.7729
424.13	1.81899
423.032	1.84143
423.032	1.84143
422.454	1.86117
421.528	1.88481
420.164	1.9275
420.164	1.9275
419.176	1.94588
417.583	1.98133
415.652	2.02658
413.644	2.07437
411.811	2.11744
410.397	2.14854
410.397	2.14854
409.187	2.18714
407.865	2.22325
406.278	2.26738
404.275	2.33002
404.275	2.33002
402.121	2.37506
400.551	2.41562
399.161	2.44741
399.161	2.44741
398.269	2.47259
397.459	2.49429
396.653	2.51496
395.77	2.53705
394.734	2.563
393.469	2.59527
391.902	2.63631
389.963	2.68855
387.588	2.75445
387.588	2.75445
387.324	2.75856
386.872	2.7679
386.226	2.78245
385.385	2.80219
384.344	2.82709
383.103	2.85715
381.66	2.89233
380.013	2.93263
378.164	2.97802
376.114	3.02849
373.863	3.08402
371.415	3.14458
371.415	3.14458
370.509	3.15615
369.801	3.16889
368.711	3.18414
368.711	3.18414
367.889	3.20654
366.736	3.23199
365.078	3.26574
362.748	3.31301
359.599	3.37905
359.599	3.37905
359.586	3.38466
359.572	3.39039
359.558	3.39636
359.558	3.39636
356.94	3.43396
355.43	3.45905
353.722	3.49315
353.722	3.49315
353.205	3.49691
352.679	3.50068
352.133	3.50444
352.133	3.50444
350.647	3.53274
349.048	3.55851
345.993	3.60386
345.993	3.60386
342.3	3.6488
340.159	3.67294
337.705	3.69698
337.705	3.69698
334.852	3.71708
332.659	3.73426
331.273	3.74138
331.273	3.74138
330.579	3.74971
329.866	3.75828
329.147	3.76698
329.147	3.76698
327.537	3.7705
324.699	3.77175
318.361	3.77181
316.669	3.75949
316.024	3.75817
315.391	3.75698
314.778	3.75604
314.778	3.75604
313.687	3.74939
311.104	3.73885
307.509	3.7216
307.509	3.7216
306.657	3.71251
305.827	3.70367
305.009	3.69497
305.009	3.69497
304.348	3.69251
303.706	3.69018
303.074	3.6881
303.074	3.6881
301.182	3.6649
299.317	3.64176
297.479	3.61867
295.665	3.59563
293.874	3.57261
292.107	3.54961
290.361	3.52662
290.361	3.52662
290.067	3.5187
289.782	3.5109
289.512	3.50336
289.512	3.50336
289.045	3.49926
288.587	3.49516
288.145	3.49106
288.145	3.49106
288.028	3.486
287.926	3.48107
287.831	3.4764
287.831	3.4764
287.437	3.47023
287.121	3.4672
286.613	3.46471
286.613	3.46471
286.553	3.46077
286.501	3.45684
286.464	3.45291
286.464	3.45291
285.5	3.43199
284.296	3.41047
281.845	3.3699
281.845	3.3699
278.768	3.29627
277.103	3.25694
276.214	3.23859
275.505	3.22792
275.505	3.22792
275.452	3.22191
275.398	3.21616
275.344	3.21052
275.344	3.21052
273.572	3.17798
272.705	3.15889
271.987	3.13688
271.987	3.13688
271.779	3.13566
271.572	3.13445
271.365	3.13323
271.365	3.13323
271.215	3.12484
270.669	3.10825
269.291	3.07103
266.674	3.00078
266.674	3.00078
266.117	2.99103
265.638	2.97659
264.829	2.94511
264.829	2.94511
264.006	2.92516
263.194	2.90534
262.399	2.88578
262.399	2.88578
262.351	2.88074
262.309	2.87584
262.278	2.87118
262.278	2.87118
261.632	2.8543
260.57	2.82056
258.311	2.75068
258.311	2.75068
258.216	2.74074
258.127	2.73104
258.05	2.72148
258.05	2.72148
257.861	2.72139
257.673	2.72129
257.485	2.72119
257.485	2.72119
256.948	2.7004
256.419	2.67985
255.904	2.65944
255.904	2.65944
255.318	2.64742
254.746	2.63552
254.181	2.62388
253.767	2.62086
252.781	2.62033
251.802	2.6198
250.831	2.61927
250.831	2.61927
250.031	2.64549
249.02	2.68438
248.232	2.7106
248.232	2.7106
248.072	2.73663
247.799	2.76381
247.342	2.80607
246.634	2.87737
246.634	2.87737
246.411	2.88606
246.145	2.91894
245.611	3.00421
245.611	3.00421
245.316	3.00574
245.016	3.00739
244.705	3.00928
244.705	3.00928
244.47	3.02156
243.97	3.04524
243.119	3.09554
241.461	3.13481
240.298	3.15724
239.665	3.16744
239.012	3.17414
239.012	3.17414
237.88	3.21659
237.058	3.24554
236.14	3.27432
234.733	3.31626
