Uv/Vis Spectrum: Pyridine, 2-ethenyl-
Formula: C7H7N
CAS: 100-69-6
Boiling point: 159.5
Instrument: SF-4
Origin: INSTITUTE OF ENERGY PROBLEMS OF CHEMICAL PHYSICS, RAS
Wavelength (nm)	Logarithm epsilon
226.3	3.894
226.56	3.905
226.81	3.915
227.15	3.924
227.41	3.934
227.66	3.942
228.09	3.951
228.34	3.96
228.68	3.968
229.11	3.975
229.45	3.983
229.88	3.991
230.39	3.998
230.81	4.006
231.32	4.013
231.75	4.019
232.26	4.025
232.77	4.03
233.37	4.035
233.96	4.041
234.65	4.044
235.24	4.049
235.84	4.053
236.52	4.056
237.28	4.059
238.05	4.059
238.82	4.057
239.5	4.053
240.09	4.048
240.61	4.042
241.03	4.035
241.46	4.029
241.88	4.023
242.31	4.016
242.82	4.011
243.33	4.005
243.84	3.999
244.44	3.994
245.03	3.988
245.63	3.983
246.14	3.976
246.4	3.968
246.65	3.96
246.91	3.951
247.16	3.942
247.42	3.934
247.67	3.924
247.93	3.915
248.18	3.906
248.44	3.896
248.78	3.886
249.04	3.875
249.29	3.864
249.63	3.854
249.89	3.843
250.14	3.83
250.4	3.818
250.74	3.806
251.08	3.794
251.42	3.782
251.76	3.769
252.02	3.755
252.44	3.743
252.78	3.729
253.12	3.714
253.55	3.699
253.97	3.685
254.4	3.671
254.82	3.657
255.34	3.641
255.85	3.626
256.27	3.609
256.87	3.595
257.55	3.583
258.23	3.572
258.91	3.559
259.59	3.551
260.36	3.543
261.13	3.546
261.89	3.546
262.66	3.546
263.42	3.548
264.19	3.557
264.96	3.559
265.64	3.567
266.4	3.572
267.09	3.58
267.77	3.59
268.45	3.597
269.13	3.607
269.81	3.619
270.58	3.626
271.17	3.639
271.85	3.648
272.54	3.657
273.22	3.665
273.9	3.675
274.66	3.681
275.35	3.687
276.03	3.695
276.79	3.699
277.56	3.703
278.33	3.703
279.09	3.701
279.86	3.695
280.54	3.685
281.22	3.675
281.9	3.665
282.67	3.663
283.35	3.657
284.12	3.654
284.88	3.652
285.65	3.652
286.33	3.644
287.01	3.633
287.69	3.621
288.2	3.607
288.71	3.59
289.31	3.575
289.74	3.554
290.16	3.535
290.42	3.511
290.84	3.49
291.18	3.464
291.69	3.444
292.12	3.419
292.72	3.396
293.4	3.376
294.08	3.356
294.84	3.347
295.53	3.329
296.21	3.306
296.8	3.276
297.23	3.239
297.74	3.204
298.08	3.153
298.59	3.103
299.1	3.046
299.61	2.98
300.29	2.927
300.89	2.852
301.57	2.778
302.25	2.709
303.02	2.669
303.7	2.577
304.47	2.493
305.23	2.426
306	2.388
306.76	2.301
