Uv/Vis Spectrum: Benzaldehyde
Formula: C7H6O
CAS: 100-52-7
Melting point: -26
Boiling point: 179.0
Instrument: n.i.g.
Origin: INSTITUTE OF ENERGY PROBLEMS OF CHEMICAL PHYSICS, RAS
Wavelength (nm)	Logarithm epsilon
372.555	1.04748
372.149	1.08596
371.67	1.12279
371.086	1.15896
370.36	1.15636
369.344	1.12105
368.319	1.08574
367.291	1.05044
363.143	1.04869
362.795	1.16245
362.496	1.16246
362.434	1.08651
362.177	1.16247
362.101	1.12482
361.848	1.16248
361.848	1.16248
361.337	1.20104
361.337	1.20104
361.334	1.19017
361.332	1.17907
361.33	1.16785
361.04	1.20105
360.724	1.20106
360.397	1.20107
360.397	1.20107
359.951	1.23212
359.494	1.26356
359.021	1.29529
358.529	1.32717
358.014	1.35911
357.473	1.39099
356.901	1.42269
356.297	1.4541
355.656	1.48511
354.974	1.51561
354.249	1.54547
354.249	1.54547
353.933	1.54653
353.617	1.54748
353.309	1.58458
353.306	1.57265
353.304	1.56047
353.301	1.54818
353.301	1.54818
352.805	1.54016
351.33	1.49297
350.305	1.45264
349.543	1.42064
348.866	1.39841
347.989	1.39576
346.899	1.42544
345.665	1.46809
344.589	1.49598
344.589	1.49598
343.455	1.54957
342.606	1.58946
341.949	1.61956
341.39	1.64384
340.838	1.66621
340.204	1.69061
339.399	1.72099
339.399	1.72099
338.982	1.72206
338.558	1.723
338.115	1.72371
338.115	1.72371
337.772	1.71575
337.431	1.7034
336.94	1.67892
336.145	1.63459
334.897	1.56268
334.897	1.56268
334.41	1.562
333.916	1.56108
333.405	1.56005
333.405	1.56005
332.733	1.58809
332.17	1.62036
331.651	1.65499
331.113	1.69015
330.493	1.72398
329.73	1.75463
328.764	1.78026
327.536	1.79901
327.536	1.79901
326.202	1.77481
325.082	1.74396
324.138	1.70899
323.331	1.67246
322.624	1.63691
321.982	1.60488
321.982	1.60488
321.41	1.6049
320.824	1.60492
320.232	1.60494
320.232	1.60494
319.159	1.64493
317.928	1.67553
315.688	1.70789
315.688	1.70252
315.687	1.69703
315.686	1.6913
315.686	1.6913
315.685	1.68541
314.887	1.65662
314.121	1.62757
313.392	1.59818
312.699	1.56841
312.046	1.53819
311.433	1.50745
310.864	1.47613
310.34	1.44417
309.612	1.44152
308.745	1.46951
307.695	1.51107
306.613	1.54442
306.613	1.54442
306.138	1.54282
305.665	1.54109
305.193	1.53913
305.193	1.53913
304.719	1.51137
304.001	1.48397
302.582	1.46696
302.582	1.46696
302.021	1.47539
301.455	1.48358
300.877	1.49165
300.877	1.49165
300.86	1.50511
300.731	1.52081
300.378	1.54703
299.692	1.59204
298.568	1.66413
298.568	1.66413
298.215	1.72438
297.897	1.78027
297.61	1.83188
297.353	1.87929
297.123	1.92256
296.918	1.96177
296.737	1.997
296.577	2.02832
296.436	2.05581
296.311	2.07954
296.202	2.09958
296.104	2.11601
296.018	2.12891
295.94	2.13835
295.869	2.1444
295.803	2.14713
295.803	2.14713
295.589	2.17607
295.379	2.20503
295.172	2.23401
294.968	2.26302
294.767	2.29204
294.568	2.32108
294.372	2.35013
294.177	2.37919
293.983	2.40826
293.79	2.43733
293.598	2.4664
293.406	2.49547
293.214	2.52454
293.021	2.5536
292.828	2.58264
292.634	2.61168
292.438	2.64069
292.241	2.66969
292.042	2.69867
291.841	2.72762
291.637	2.75654
291.429	2.78543
291.219	2.81429
291.005	2.84311
290.787	2.87189
290.565	2.90063
290.339	2.92933
290.108	2.95797
289.871	2.98657
289.629	3.01511
289.382	3.04359
289.382	3.04359
289.172	3.05575
288.962	3.06768
288.753	3.07949
288.753	3.07949
288.504	3.08162
288.242	3.08363
287.974	3.08541
287.974	3.08541
287.683	3.06786
287.002	3.04378
285.946	3.03839
285.946	3.03839
285.53	3.11849
285.298	3.14945
285.05	3.15781
285.05	3.15781
284.68	3.14621
284.42	3.12806
283.671	3.1022
283.67	3.09845
283.67	3.0947
283.669	3.09096
283.527	3.11077
283.527	3.11077
283.287	3.11721
283.035	3.12364
282.777	3.13008
282.777	3.13008
282.534	3.16817
282.176	3.20238
281.67	3.23392
280.985	3.264
280.091	3.29382
278.959	3.32459
278.959	3.32459
278.129	3.32233
277.68	3.31874
277.226	3.31075
277.226	3.31075
276.635	3.28054
276.069	3.25393
275.397	3.22111
274.489	3.17223
274.489	3.17223
274.081	3.17225
273.668	3.17227
273.244	3.1723
273.244	3.1723
272.835	3.19266
272.415	3.21302
271.991	3.23339
271.991	3.23339
271.769	3.23445
271.537	3.23539
271.298	3.2361
271.298	3.2361
269.346	3.18292
267.873	3.14238
266.772	3.11205
265.945	3.08949
265.296	3.07226
264.733	3.05794
264.166	3.04408
263.506	3.02825
263.506	3.02825
261.99	3.01316
260.607	3.01556
259.144	3.03652
259.144	3.03652
258.582	3.06773
258.051	3.09892
257.549	3.13013
257.076	3.16142
256.631	3.19283
256.212	3.22441
255.819	3.2562
255.819	3.2562
255.67	3.2854
255.523	3.31461
255.377	3.34382
255.231	3.37304
255.087	3.40225
254.943	3.43148
254.8	3.4607
254.658	3.48992
254.517	3.51914
254.376	3.54836
254.235	3.57758
254.095	3.60679
253.955	3.636
253.816	3.66521
253.677	3.69442
253.537	3.72362
253.398	3.75281
253.26	3.78199
253.12	3.81117
252.981	3.84034
252.842	3.8695
252.703	3.89865
252.563	3.92779
252.423	3.95691
252.282	3.98603
252.141	4.01513
252	4.04422
251.858	4.0733
251.715	4.10236
251.571	4.1314
251.427	4.16043
251.308	4.24739
251.282	4.18944
251.136	4.21844
250.989	4.24741
250.989	4.24741
250.762	4.24742
250.684	4.27915
250.45	4.31351
250.074	4.37488
250.074	4.37488
249.916	4.37489
249.758	4.3749
249.601	4.37491
249.601	4.37491
249.597	4.3986
249.439	4.41743
249.353	4.36957
249.353	4.36582
249.352	4.36207
249.352	4.35832
247.928	4.40181
247.105	4.35753
246.595	4.31941
246.595	4.31941
246.261	4.32155
245.917	4.32358
245.569	4.32536
245.569	4.32536
245.253	4.36772
244.861	4.40752
244.405	4.44642
