Uv/Vis Spectrum: Cyclohexanone oxime
Formula: C6H11NO
CAS: 100-64-1
Melting point: 90
Boiling point: 206
Instrument: n.i.g.
Origin: INSTITUTE OF ENERGY PROBLEMS OF CHEMICAL PHYSICS, RAS
Wavelength (nm)	Logarithm epsilon
210.834	3.33758
211.199	3.33014
211.572	3.32235
211.572	3.32235
212.372	3.29852
213.174	3.27392
213.982	3.24845
214.801	3.22197
215.637	3.19432
216.494	3.16531
217.379	3.13469
218.295	3.1022
219.248	3.06747
220.529	3.0128
221.333	2.9708
222.149	2.92659
222.978	2.87992
223.821	2.83053
224.677	2.77809
225.546	2.72221
226.429	2.66243
227.326	2.59817
228.237	2.52876
229.162	2.45332
230.101	2.37078
231.056	2.27975
232.025	2.17841
233.008	2.06438
234.007	1.93448
235.022	1.78451
236.052	1.60931
