Uv/Vis Spectrum: Styrene
Formula: C8H8
CAS: 100-42-5
Melting point: - 31
Boiling point: 145
Instrument: Beckman DU
Origin: INSTITUTE OF ENERGY PROBLEMS OF CHEMICAL PHYSICS, RAS
Wavelength (nm)	Logarithm epsilon
221.04	3.696
221.29	3.7
221.55	3.703
221.81	3.705
222.07	3.709
222.33	3.712
222.59	3.716
223.11	3.729
223.63	3.739
224.14	3.749
224.66	3.763
225.18	3.777
225.7	3.791
226.22	3.809
226.73	3.828
227.25	3.848
227.77	3.861
228.29	3.879
228.8	3.901
229.32	3.927
229.84	3.943
230.36	3.95
230.88	3.983
231.39	3.991
231.91	4.003
232.43	4.023
232.95	4.03
233.47	4.045
233.98	4.057
234.5	4.069
235.02	4.084
235.54	4.091
236.06	4.105
236.57	4.11
237.09	4.114
237.61	4.121
238.13	4.128
238.65	4.134
239.16	4.14
239.68	4.147
240.2	4.151
240.72	4.154
241.24	4.158
241.75	4.162
242.27	4.163
242.79	4.165
243.31	4.165
243.82	4.165
244.34	4.165
244.86	4.165
245.38	4.165
245.9	4.165
246.41	4.161
246.93	4.157
247.45	4.147
247.97	4.138
248.49	4.131
249	4.119
249.52	4.102
250.04	4.08
250.56	4.063
251.08	4.048
251.59	4.023
252.11	4.004
252.63	3.987
253.15	3.969
253.67	3.935
254.18	3.915
254.7	3.889
255.22	3.848
255.74	3.828
256.25	3.804
256.77	3.769
257.29	3.716
257.81	3.687
258.33	3.648
258.84	3.594
259.36	3.529
259.88	3.476
260.4	3.411
260.92	3.388
261.43	3.349
261.95	3.323
262.47	3.284
262.99	3.266
263.51	3.241
264.02	3.228
264.54	3.207
265.06	3.193
265.58	3.178
266.1	3.163
266.61	3.147
267.13	3.131
267.65	3.122
268.17	3.122
268.69	3.114
269.2	3.096
269.72	3.087
