Uv/Vis Spectrum: Benzonitrile
Formula: C7H5N
CAS: 100-47-0
Melting point: -12.7
Boiling point: 191.1
Instrument: Cary 11
Origin: INSTITUTE OF ENERGY PROBLEMS OF CHEMICAL PHYSICS, RAS
Wavelength (nm)	Logarithm epsilon
298.485	-0.738499
298.162	-0.68382
297.868	-0.677367
297.853	-0.650334
297.496	-0.595851
297.488	-0.582694
297.195	-0.576263
296.876	-0.521578
296.853	-0.480829
296.525	-0.474307
296.203	-0.413188
296.188	-0.386158
295.898	-0.37976
295.871	-0.331521
295.864	-0.318487
295.542	-0.318578
295.527	-0.291579
295.219	-0.250882
295.196	-0.209996
294.601	-0.16279
294.571	-0.108072
293.939	-0.054384
293.913	-0.007005
293.28	0.054115
293.262	0.087604
292.98	0.087497
292.969	0.107922
292.662	0.156034
292.655	0.169086
292.336	0.175541
292.318	0.209837
291.723	0.277472
291.697	0.324838
291.381	0.331265
291.077	0.379378
291.052	0.426739
290.465	0.487831
290.444	0.527849
289.826	0.588932
289.808	0.623229
289.501	0.683587
289.497	0.69094
289.185	0.697378
289.174	0.717795
288.872	0.771617
288.862	0.792034
288.584	0.799299
288.57	0.82625
288.26	0.832694
288.236	0.880064
288.232	0.887415
287.957	0.893867
287.939	0.92735
287.636	0.988519
287.632	0.995051
287.324	1.00231
287.307	1.0358
287.033	1.04306
287.012	1.08308
287.005	1.09697
286.732	1.10342
286.717	1.13119
286.445	1.13764
286.421	1.18501
286.41	1.20542
286.105	1.21186
286.101	1.21921
285.805	1.27304
285.784	1.31387
285.493	1.36116
285.189	1.3676
285.172	1.4019
284.902	1.40835
284.881	1.44919
284.868	1.47614
284.602	1.47606
284.592	1.49647
284.269	1.54375
284.249	1.58458
283.981	1.59104
283.692	1.63914
283.669	1.68651
283.369	1.69295
283.089	1.72717
283.065	1.77454
282.772	1.83489
282.765	1.84878
282.504	1.84869
282.49	1.87564
282.193	1.8829
282.166	1.93681
282.156	1.95722
281.892	1.96367
281.885	1.97756
281.864	2.01839
281.601	2.02484
281.591	2.04526
281.275	2.09254
281.262	2.11949
281.003	2.11941
280.741	2.12668
280.734	2.13974
280.441	2.14618
280.414	2.2009
280.397	2.23439
280.183	2.1461
280.16	2.19429
280.136	2.24166
280.133	2.24819
279.873	2.25464
279.869	2.26199
279.843	2.31589
279.83	2.34285
279.61	2.26844
279.59	2.30928
279.57	2.35011
279.563	2.36318
279.54	2.41055
279.276	2.36309
279.255	2.40392
279.249	2.41781
279.232	2.45129
278.977	2.45121
278.94	2.52635
278.683	2.5328
278.643	2.61447
278.354	2.62091
278.347	2.63398
278.094	2.63389
278.077	2.66819
277.824	2.66811
277.807	2.70241
277.52	2.70886
277.51	2.72927
