Uv/Vis Spectrum: Acetophenone, 4'-nitro-
Formula: C8H7NO3
CAS: 100-19-6
Melting point: 81.8
Boiling point: 165(5)
Instrument: n.i.g.
Origin: INSTITUTE OF ENERGY PROBLEMS OF CHEMICAL PHYSICS, RAS
Wavelength (nm)	Logarithm epsilon
390.273	1.22276
389.792	1.24347
389.295	1.25856
389.08	1.27352
386.858	1.33546
386.271	1.35594
385.669	1.37643
385.06	1.39692
383.071	1.45229
382.299	1.47228
381.511	1.49209
380.718	1.51181
378.771	1.56515
378.398	1.5758
378.017	1.58635
377.62	1.59674
375.696	1.64355
375.164	1.65436
374.577	1.66591
373.785	1.68628
372.287	1.7163
371.509	1.73045
370.778	1.74604
369.647	1.76732
367.589	1.79092
365.991	1.82107
364.25	1.84726
362.274	1.87422
358.34	1.91938
356.88	1.93879
355.423	1.95812
353.964	1.97727
353.964	1.97727
352.927	1.98159
352.181	1.98814
351.74	1.99889
349.514	2.02255
348.341	2.03203
347.17	2.04133
345.991	2.05054
341.085	2.10247
340.124	2.10988
339.167	2.11711
338.216	2.12425
334.287	2.15645
333.005	2.16608
331.726	2.17562
330.444	2.18498
326.728	2.22369
325.704	2.23399
324.68	2.2441
323.65	2.25413
320.79	2.30534
320.329	2.31685
319.864	2.32827
319.387	2.33951
316.62	2.40988
315.948	2.43688
315.463	2.45822
315.293	2.48402
314.206	2.49283
313.873	2.50539
313.375	2.53004
312.603	2.56092
310.778	2.62498
310.609	2.63918
310.44	2.6532
310.272	2.66712
308.841	2.71192
308.082	2.73783
307.643	2.75052
307.147	2.76087
306.018	2.80153
305.551	2.81509
305.079	2.82856
304.597	2.84185
301.824	2.90168
300.741	2.92805
300.097	2.94143
299.335	2.9533
297.643	2.99615
297.355	2.9957
297.062	2.99506
296.885	3.00247
296.759	2.99434
296.507	3.00463
296.07	3.00972
295.2	3.02208
291.51	3.07771
291.081	3.08505
290.653	3.0922
290.227	3.09927
286.763	3.14671
286.325	3.1603
285.878	3.17388
285.427	3.18747
285.427	3.18747
284.084	3.20739
283.562	3.21685
283.405	3.22393
281.213	3.27963
281.084	3.28689
280.946	3.29397
280.804	3.30096
279.076	3.36265
278.729	3.37619
278.384	3.38965
278.039	3.40293
276.999	3.45626
276.455	3.4806
276.093	3.49681
275.967	3.5096
274.937	3.55437
274.6	3.56792
274.259	3.58138
273.91	3.59466
272.699	3.64561
272.166	3.66413
271.626	3.68265
271.084	3.70117
268.383	3.76565
268.209	3.76722
268.036	3.7686
267.862	3.76989
265.019	3.81119
263.684	3.81652
262.362	3.82184
261.054	3.82717
258.773	3.82345
257.87	3.81886
256.973	3.81427
256.082	3.80969
255.798	3.80775
255.498	3.80785
255.195	3.80796
254.884	3.80806
253.424	3.78736
253.094	3.78544
252.765	3.78352
252.437	3.78159
251.089	3.75883
250.968	3.75601
250.847	3.7532
250.727	3.75039
249.144	3.72567
248.682	3.71604
248.214	3.70631
247.744	3.69641
244.303	3.62142
244.138	3.61606
243.97	3.61051
243.795	3.60488
242.114	3.56311
241.591	3.54634
241.027	3.52815
240.619	3.50454
238.811	3.43346
238.378	3.40985
237.94	3.38606
237.501	3.36219
236.511	3.29895
236.278	3.2872
236.042	3.27536
235.799	3.26334
234.439	3.20271
234.13	3.18885
233.816	3.17481
233.5	3.16068
231.809	3.1108
231.324	3.0948
230.697	3.07622
230.057	3.063
228.063	3.04021
227.391	3.0405
226.72	3.0408
226.047	3.04109
226.047	3.04109
225.198	3.05376
224.061	3.06029
222.947	3.06819
221.995	3.08739
221.719	3.09403
221.444	3.10058
221.17	3.10694
220.367	3.13261
220.106	3.14128
219.839	3.14987
219.57	3.15827
