Uv/Vis Spectrum: Pyridine, 2-phenyl-
Formula: C11H9N
CAS: 1008-89-5
Boiling point: 271
Instrument: Beckman DU
Origin: INSTITUTE OF ENERGY PROBLEMS OF CHEMICAL PHYSICS, RAS
Wavelength (nm)	Logarithm epsilon
215.02	3.896
215.2	3.894
215.38	3.892
215.56	3.891
215.73	3.889
215.91	3.887
216.81	3.849
217.71	3.829
218.6	3.816
219.5	3.806
220.39	3.799
221.29	3.801
222.19	3.806
223.08	3.816
223.98	3.829
224.87	3.854
225.77	3.883
226.67	3.908
227.56	3.935
228.46	3.953
229.35	3.981
230.25	4.002
231.15	4.022
232.04	4.042
232.94	4.059
233.84	4.075
234.73	4.091
235.63	4.099
236.52	4.107
237.42	4.112
238.32	4.113
239.21	4.113
240.11	4.112
241	4.107
241.9	4.101
242.8	4.091
243.69	4.084
244.59	4.07
245.48	4.058
246.38	4.044
247.28	4.028
248.17	4.01
249.07	3.992
249.96	3.971
250.86	3.951
251.76	3.93
252.65	3.913
253.55	3.9
254.44	3.892
255.34	3.887
256.24	3.887
257.13	3.887
258.03	3.891
258.92	3.896
259.82	3.906
260.72	3.919
261.61	3.933
262.51	3.951
263.41	3.966
264.3	3.981
265.2	3.998
266.09	4.009
266.99	4.019
267.89	4.028
268.78	4.032
269.68	4.035
270.57	4.035
271.47	4.035
272.37	4.032
273.26	4.028
274.16	4.02
275.05	4.011
275.95	3.999
276.85	3.984
277.74	3.966
278.64	3.948
279.53	3.926
280.43	3.902
281.33	3.877
282.22	3.851
283.12	3.823
284.01	3.797
284.91	3.769
285.81	3.742
286.7	3.707
287.6	3.667
288.49	3.632
289.39	3.595
290.29	3.559
291.18	3.524
292.08	3.486
292.97	3.444
293.87	3.409
294.43	3.388
294.86	3.373
295.22	3.36
295.44	3.351
295.63	3.345
295.84	3.339
296.02	3.331
296.23	3.325
296.45	3.319
296.74	3.31
297.09	3.298
297.48	3.283
297.84	3.272
298.17	3.262
298.6	3.248
298.89	3.236
