Uv/Vis Spectrum: Bullvalene
Formula: C10H10
CAS: 1005-51-2
Melting point: 95-96
Instrument: Zeiss PMQ II
Origin: INSTITUTE OF ENERGY PROBLEMS OF CHEMICAL PHYSICS, RAS
Wavelength (nm)	Logarithm epsilon
183.62	4.194
183.91	4.177
184.22	4.161
184.58	4.145
184.97	4.131
185.39	4.118
185.84	4.105
186.29	4.092
186.81	4.08
187.45	4.07
188.18	4.063
188.87	4.06
189.57	4.058
190.27	4.058
190.98	4.056
191.69	4.054
192.39	4.051
193.13	4.049
193.86	4.047
194.59	4.045
195.31	4.042
196.08	4.039
196.83	4.034
197.52	4.029
198.26	4.024
199.03	4.017
199.72	4.009
200.41	4.003
201.11	3.992
201.81	3.981
202.43	3.971
203.14	3.96
203.77	3.949
204.4	3.936
205.03	3.924
205.76	3.913
206.5	3.902
207.24	3.894
207.98	3.887
208.73	3.879
209.49	3.87
210.25	3.861
211.11	3.853
211.99	3.847
212.77	3.838
213.45	3.826
214.05	3.813
214.64	3.8
215.34	3.787
215.94	3.774
216.45	3.76
217.06	3.745
217.57	3.73
218.19	3.715
218.73	3.698
219.22	3.683
219.74	3.666
220.23	3.652
220.79	3.636
221.32	3.621
221.82	3.607
222.38	3.591
222.81	3.574
223.35	3.559
223.89	3.542
224.43	3.527
224.98	3.512
225.53	3.497
226.08	3.482
226.74	3.468
227.41	3.455
228.09	3.442
228.76	3.427
229.56	3.414
230.36	3.401
231.05	3.387
231.77	3.372
232.41	3.359
233.14	3.344
233.97	3.331
234.84	3.315
235.56	3.3
236.23	3.286
236.73	3.276
237.21	3.266
237.6	3.257
237.94	3.25
238.06	3.248
238.19	3.246
238.31	3.242
238.43	3.239
238.56	3.237
238.68	3.235
238.8	3.233
238.93	3.231
239.05	3.227
239.17	3.225
239.3	3.222
239.42	3.22
239.54	3.218
239.67	3.216
239.79	3.212
239.92	3.21
240.04	3.205
240.42	3.197
240.79	3.188
241.17	3.181
241.55	3.171
241.92	3.158
242.31	3.148
242.69	3.135
243.07	3.122
243.45	3.105
243.84	3.092
244.22	3.075
244.61	3.063
245	3.043
245.39	3.028
245.78	3.011
246.17	2.988
246.57	2.971
246.96	2.952
247.36	2.93
247.76	2.907
248.09	2.886
248.56	2.856
248.96	2.83
249.36	2.805
249.76	2.775
250.17	2.747
250.58	2.717
250.98	2.696
251.39	2.666
251.8	2.641
252.22	2.613
252.63	2.583
253.04	2.551
253.46	2.521
253.88	2.493
254.3	2.461
254.72	2.432
255.14	2.4
255.56	2.37
255.98	2.34
256.41	2.308
256.84	2.278
257.27	2.25
257.7	2.219
258.13	2.189
258.56	2.161
258.99	2.131
259.43	2.101
259.87	2.067
260.31	2.035
260.77	1.999
261.19	1.967
261.63	1.935
262.08	1.901
262.52	1.871
262.97	1.841
263.42	1.811
263.87	1.784
264.32	1.756
264.78	1.726
265.23	1.696
265.69	1.664
266.15	1.635
266.61	1.605
267.07	1.573
267.53	1.543
