Uv/Vis Spectrum: 1,4-Di-isopropylbenzene
Formula: C12H18
CAS: 100-18-5
Melting point: - 17
Boiling point: 210.3
Instrument: unknown
Origin: INSTITUTE OF ENERGY PROBLEMS OF CHEMICAL PHYSICS, RAS
Wavelength (nm)	Logarithm epsilon
228.94	2.398
228.99	2.398
229.03	2.398
229.11	2.365
229.2	2.342
229.28	2.322
229.45	2.274
229.49	2.272
229.54	2.265
229.62	2.245
229.7	2.227
229.79	2.209
229.87	2.184
229.96	2.166
230.04	2.137
230.13	2.125
230.21	2.1
230.29	2.085
230.38	2.065
230.46	2.044
230.55	2.022
230.84	1.959
230.89	1.941
230.97	1.921
231.05	1.901
231.14	1.879
231.22	1.857
231.35	1.836
231.48	1.814
231.6	1.787
231.73	1.763
231.9	1.736
232.02	1.708
232.24	1.682
232.45	1.65
232.66	1.62
232.91	1.588
233.16	1.559
233.42	1.527
233.71	1.498
234.01	1.468
234.35	1.442
234.73	1.422
235.1	1.415
235.48	1.415
235.86	1.422
236.2	1.442
236.58	1.462
236.92	1.487
237.26	1.51
237.59	1.532
237.93	1.559
238.31	1.574
238.65	1.593
238.99	1.611
239.32	1.633
239.66	1.646
240	1.663
240.34	1.674
240.67	1.69
241.01	1.708
241.31	1.726
241.64	1.736
241.98	1.753
242.32	1.769
242.62	1.787
242.91	1.805
243.21	1.822
243.46	1.839
243.67	1.857
243.92	1.872
244.22	1.887
244.51	1.901
244.77	1.915
245.06	1.926
245.36	1.937
245.65	1.949
245.95	1.959
246.24	1.969
246.54	1.981
246.83	1.993
247.13	2.002
247.38	2.013
247.64	2.025
247.89	2.036
248.14	2.047
248.35	2.059
248.56	2.07
248.78	2.082
248.99	2.094
249.16	2.106
249.37	2.118
249.49	2.129
249.66	2.14
249.79	2.151
249.96	2.162
250.17	2.172
250.34	2.182
250.55	2.191
250.8	2.2
251.05	2.206
251.35	2.212
251.64	2.218
251.98	2.223
252.32	2.227
252.66	2.231
252.99	2.235
253.37	2.236
253.71	2.24
254.05	2.243
254.39	2.247
254.68	2.253
254.94	2.259
255.1	2.267
255.27	2.275
255.4	2.283
255.53	2.292
255.65	2.299
255.82	2.307
255.99	2.314
256.12	2.321
256.29	2.328
256.45	2.335
256.62	2.342
256.83	2.348
257	2.355
257.21	2.361
257.42	2.367
257.85	2.372
257.89	2.372
257.93	2.373
257.97	2.373
258.02	2.373
258.06	2.373
258.1	2.373
258.14	2.373
258.18	2.373
258.23	2.373
258.27	2.374
258.48	2.372
258.69	2.365
258.9	2.361
259.11	2.356
259.32	2.349
259.53	2.344
259.75	2.34
259.96	2.337
260.17	2.335
260.38	2.335
260.59	2.336
260.8	2.339
261.01	2.343
261.22	2.348
261.43	2.353
261.63	2.358
261.86	2.365
262.07	2.381
262.28	2.405
262.49	2.429
262.7	2.457
262.91	2.477
263.12	2.499
263.33	2.51
263.54	2.517
263.75	2.522
263.96	2.525
264.18	2.527
264.39	2.527
264.6	2.523
264.81	2.517
265.02	2.509
265.23	2.499
265.44	2.49
265.65	2.479
265.86	2.467
266.07	2.454
266.29	2.442
266.5	2.431
266.71	2.42
266.92	2.404
267.13	2.389
267.34	2.374
267.52	2.363
267.76	2.35
267.91	2.341
268.11	2.326
268.39	2.305
268.61	2.284
268.82	2.266
269.03	2.249
269.24	2.236
269.45	2.236
269.66	2.244
269.87	2.254
270.08	2.266
270.25	2.28
270.37	2.29
270.5	2.301
270.57	2.307
270.62	2.313
270.67	2.318
270.72	2.325
270.76	2.334
270.8	2.341
270.84	2.349
270.88	2.363
270.94	2.385
271	2.408
271.06	2.437
271.11	2.459
271.17	2.483
271.23	2.511
271.31	2.54
271.4	2.561
271.52	2.568
271.64	2.57
271.77	2.57
271.9	2.569
272.02	2.566
272.13	2.557
272.25	2.536
272.38	2.511
272.51	2.481
272.65	2.448
272.79	2.414
272.98	2.369
273.18	2.32
273.37	2.277
273.53	2.237
273.71	2.191
273.84	2.15
273.96	2.119
274.09	2.084
274.22	2.049
274.34	2.013
274.47	1.987
274.6	1.949
274.72	1.905
274.85	1.879
274.98	1.847
275.1	1.819
275.23	1.787
275.36	1.753
275.48	1.726
275.61	1.694
275.74	1.671
275.86	1.642
275.99	1.611
276.12	1.588
276.24	1.564
276.37	1.532
276.5	1.504
276.62	1.481
276.75	1.449
276.88	1.422
277	1.385
277.13	1.354
277.23	1.332
277.38	1.302
277.51	1.263
277.61	1.237
277.76	1.209
277.85	1.186
278.01	1.148
278.11	1.122
278.27	1.077
278.38	1.047
278.49	1.008
278.63	0.965
278.77	0.909
278.84	0.885
278.97	0.849
279.15	0.777
