Uv/Vis Spectrum: Di-4-nitrophenyl sulfide
Formula: C12H8N2O4S2
CAS: 100-32-3
Melting point: 175-177
Instrument: Beckman DU
Origin: INSTITUTE OF ENERGY PROBLEMS OF CHEMICAL PHYSICS, RAS
Wavelength (nm)	Logarithm epsilon
214.05	4.317
215.41	4.3
216.76	4.286
218.11	4.269
219.47	4.255
220.82	4.242
222.35	4.235
223.7	4.221
225.06	4.211
226.58	4.201
228.1	4.19
229.46	4.173
230.81	4.16
232.33	4.15
233.69	4.136
235.04	4.122
236.4	4.105
237.75	4.092
239.11	4.078
240.46	4.064
241.81	4.051
243.17	4.034
244.52	4.02
245.88	4.006
247.23	3.996
248.76	3.986
250.28	3.976
251.8	3.969
253.33	3.966
254.85	3.959
256.37	3.955
257.9	3.955
259.42	3.959
260.94	3.959
262.47	3.962
263.99	3.969
265.52	3.969
267.04	3.972
268.39	3.983
269.92	3.986
271.44	3.989
272.96	4
274.49	4.003
276.01	4.01
277.37	4.02
278.89	4.023
280.24	4.037
281.77	4.044
283.12	4.054
284.48	4.064
286	4.075
287.35	4.088
288.71	4.098
290.23	4.109
291.59	4.122
292.94	4.136
294.3	4.15
295.65	4.16
297	4.173
298.36	4.187
299.88	4.194
301.24	4.208
302.59	4.218
304.11	4.225
305.47	4.235
306.99	4.242
308.52	4.252
310.04	4.255
311.56	4.259
313.09	4.265
314.61	4.269
316.13	4.272
317.66	4.272
319.18	4.272
320.7	4.269
322.23	4.269
323.75	4.269
325.28	4.259
326.8	4.259
328.32	4.255
329.68	4.245
331.2	4.238
332.72	4.228
334.25	4.218
335.77	4.208
337.13	4.19
338.65	4.18
340	4.17
341.36	4.153
342.71	4.136
344.07	4.122
345.42	4.105
346.61	4.088
347.96	4.071
349.15	4.054
350.5	4.037
351.69	4.02
352.87	4
354.06	3.983
355.24	3.966
356.26	3.945
357.44	3.928
358.63	3.908
359.81	3.887
361	3.87
362.18	3.85
363.2	3.829
364.21	3.809
365.4	3.788
366.58	3.768
367.77	3.747
368.78	3.724
369.97	3.703
370.98	3.683
372	3.662
373.02	3.638
374.2	3.618
375.39	3.598
376.23	3.574
377.25	3.553
378.43	3.533
379.45	3.512
380.3	3.488
381.31	3.468
382.33	3.448
383.34	3.427
384.19	3.403
385.2	3.379
386.22	3.359
387.24	3.339
388.08	3.311
389.1	3.291
390.11	3.267
390.96	3.243
391.98	3.223
392.99	3.202
393.84	3.178
394.85	3.155
395.87	3.131
396.72	3.107
397.73	3.083
398.75	3.062
399.76	3.042
400.61	3.018
401.63	2.998
402.64	2.974
403.66	2.953
404.5	2.93
405.52	2.909
406.54	2.889
407.55	2.865
408.57	2.841
409.58	2.821
410.6	2.8
411.61	2.78
412.63	2.759
413.65	2.735
414.66	2.715
415.85	2.694
416.86	2.674
418.05	2.654
419.06	2.633
420.25	2.613
421.43	2.596
422.62	2.579
423.8	2.562
425.16	2.545
426.51	2.527
427.87	2.51
429.39	2.5
