Uv/Vis Spectrum: 1,4-Benzenedicarboxylic acid
Formula: C8H6O4
CAS: 100-21-0
Melting point: 300
Instrument: Unicam SP 700
Origin: INSTITUTE OF ENERGY PROBLEMS OF CHEMICAL PHYSICS, RAS
Wavelength (nm)	Logarithm epsilon
209.93	3.327
211.45	3.323
212.8	3.337
213.81	3.357
214.65	3.381
215.49	3.408
216.16	3.435
216.84	3.462
217.34	3.49
217.85	3.517
218.46	3.552
219	3.584
219.36	3.605
219.87	3.636
220.37	3.666
221.05	3.697
221.55	3.724
222.06	3.751
222.56	3.781
223.07	3.812
223.74	3.839
224.24	3.866
224.75	3.893
225.42	3.921
226.07	3.949
226.82	3.978
227.48	4.001
228.29	4.029
228.96	4.056
229.8	4.084
230.64	4.111
231.48	4.138
232.33	4.165
233.34	4.185
234.45	4.205
235.8	4.227
236.95	4.241
238.22	4.254
239.57	4.263
241.08	4.27
242.6	4.27
243.94	4.257
244.95	4.233
245.8	4.209
246.64	4.185
247.48	4.162
248.32	4.138
249.16	4.111
250	4.084
250.68	4.056
251.52	4.029
252.02	4.002
252.7	3.975
253.37	3.948
253.88	3.921
254.55	3.893
255.06	3.866
255.56	3.839
256.21	3.809
256.78	3.78
257.29	3.751
257.75	3.724
258.25	3.697
258.76	3.669
259.26	3.639
259.77	3.612
260.27	3.585
260.61	3.554
261.12	3.527
261.62	3.496
262.13	3.466
262.8	3.439
263.47	3.412
263.98	3.384
264.65	3.357
265.49	3.33
266.2	3.309
267.18	3.279
268.19	3.255
269.2	3.235
270.54	3.225
271.89	3.211
273.41	3.208
274.92	3.208
276.44	3.215
277.95	3.218
279.47	3.221
280.98	3.228
282.33	3.238
283.51	3.255
284.69	3.272
286.03	3.286
287.55	3.286
288.9	3.276
290.24	3.266
291.25	3.242
292.43	3.221
293.78	3.208
295.29	3.201
296.64	3.188
297.48	3.164
298.16	3.137
298.83	3.109
299.34	3.079
299.84	3.048
300.35	3.021
300.68	2.991
301.19	2.96
301.52	2.93
301.86	2.899
302.25	2.866
302.7	2.838
303.09	2.808
303.43	2.779
303.88	2.75
304.22	2.719
304.55	2.689
304.98	2.66
305.4	2.631
305.73	2.6
306.07	2.57
306.41	2.539
306.74	2.509
307.08	2.478
307.49	2.449
307.89	2.413
308.26	2.39
308.76	2.363
309.1	2.332
309.44	2.302
309.77	2.271
310.11	2.241
310.54	2.207
310.95	2.183
311.29	2.152
311.79	2.125
312.13	2.095
312.64	2.064
312.97	2.033
313.31	2.003
313.65	1.972
313.98	1.942
314.49	1.915
314.99	1.884
315.33	1.854
315.83	1.826
316.17	1.796
316.68	1.765
317.01	1.735
