Uv/Vis Spectrum: Dibenzothiophene sulfone
Formula: C12H8O2S
CAS: 1016-05-3
Melting point: 236
Instrument: SF-4
Origin: INSTITUTE OF ENERGY PROBLEMS OF CHEMICAL PHYSICS, RAS
Wavelength (nm)	Logarithm epsilon
228.55	4.548
228.7	4.546
228.88	4.544
229.05	4.541
229.22	4.537
229.81	4.531
230.57	4.527
231.23	4.528
231.92	4.537
232.67	4.56
233.28	4.585
233.69	4.61
233.98	4.635
234.28	4.651
234.63	4.663
234.89	4.669
235.3	4.667
235.61	4.654
236	4.639
236.53	4.617
237.05	4.588
237.64	4.554
238.01	4.531
238.31	4.516
238.6	4.506
239.01	4.501
239.36	4.5
239.65	4.502
240.01	4.51
240.3	4.523
240.62	4.544
240.88	4.563
241.38	4.602
241.72	4.626
242.06	4.65
242.21	4.659
242.35	4.666
242.52	4.67
242.72	4.672
242.95	4.67
243.22	4.664
243.42	4.656
243.58	4.646
243.8	4.63
244.04	4.609
244.35	4.584
244.68	4.557
245.05	4.521
245.44	4.483
245.9	4.422
246.44	4.335
246.79	4.279
247.11	4.215
247.36	4.14
247.57	4.065
247.84	3.984
248.14	3.898
248.27	3.85
248.46	3.771
248.65	3.697
248.8	3.65
248.95	3.601
249.09	3.555
249.3	3.51
249.51	3.471
249.72	3.441
250	3.412
250.33	3.394
250.67	3.381
251.35	3.374
252.03	3.378
252.7	3.391
253.38	3.405
254.05	3.422
254.73	3.442
255.4	3.459
256.08	3.476
256.76	3.49
257.43	3.507
258.11	3.524
258.78	3.541
259.46	3.554
260.19	3.571
260.91	3.587
261.51	3.603
262.27	3.623
262.91	3.636
263.51	3.652
264.36	3.673
265.04	3.688
265.71	3.701
266.38	3.714
267.06	3.731
267.73	3.748
268.41	3.762
269.09	3.779
269.76	3.796
270.4	3.806
271.11	3.81
271.79	3.813
272.46	3.813
273.14	3.816
273.82	3.816
274.49	3.823
275.17	3.827
275.84	3.83
276.52	3.844
277.19	3.861
277.87	3.867
278.55	3.878
279.22	3.878
279.9	3.878
280.57	3.878
281.25	3.871
281.92	3.861
282.6	3.844
283.27	3.823
283.95	3.796
284.63	3.779
285.3	3.748
285.98	3.721
286.65	3.707
287.33	3.697
288	3.697
288.68	3.707
289.36	3.735
290.03	3.755
290.71	3.762
291.38	3.765
292.06	3.762
292.73	3.748
293.41	3.697
294.09	3.612
294.76	3.514
295.44	3.429
296.11	3.35
296.79	3.262
297.46	3.19
298.14	3.136
298.81	3.092
299.49	3.065
300.17	3.044
300.84	3.034
301.52	3.027
302.19	3.027
302.87	3.031
303.54	3.037
304.22	3.041
304.9	3.051
305.57	3.058
306.25	3.071
306.92	3.075
307.6	3.088
308.27	3.095
308.95	3.109
309.63	3.122
310.3	3.129
310.98	3.143
311.65	3.156
312.33	3.167
313	3.18
313.68	3.194
314.35	3.201
315.03	3.211
315.71	3.214
316.38	3.224
317.06	3.228
317.73	3.231
318.41	3.238
319.08	3.241
319.76	3.241
320.44	3.245
321.11	3.241
321.79	3.241
322.46	3.241
323.14	3.241
323.81	3.238
324.49	3.231
325.17	3.228
325.84	3.224
326.52	3.211
327.19	3.207
327.87	3.194
328.54	3.18
329.22	3.17
329.89	3.156
330.57	3.139
331.25	3.112
331.92	3.082
332.6	3.041
333.27	2.99
333.95	2.922
334.62	2.864
335.3	2.799
335.98	2.728
336.65	2.656
337.33	2.582
338	2.503
338.68	2.415
339.35	2.347
340.03	2.252
340.71	2.16
341.38	2.068
342.06	1.976
342.73	1.881
343.41	1.789
344.08	1.701
344.76	1.612
345.44	1.524
346.11	1.452
346.79	1.378
347.46	1.31
348.14	1.241
348.81	1.17
349.49	1.102
350.16	1.044
350.84	0.98
