Uv/Vis Spectrum: Diphenylmethane
Formula: C13H12
CAS: 101-81-5
Melting point: 25.2
Boiling point: 265
Instrument: Spectrograph 110c Fuess or Zeiss
Origin: INSTITUTE OF ENERGY PROBLEMS OF CHEMICAL PHYSICS, RAS
Wavelength (nm)	Logarithm epsilon
240	2.24
241	2.27
242	2.31
243	2.33
244	2.37
245	2.41
246	2.44
247	2.51
248	2.51
249	2.51
250	2.51
251	2.59
252	2.63
253	2.63
254	2.61
255	2.61
256	2.62
257	2.64
258	2.65
259	2.67
260	2.65
261	2.66
262	2.65
263	2.61
264	2.6
265	2.52
266	2.51
267	2.44
268	2.53
269	2.52
