Uv/Vis Spectrum: 1,4-Benzenediamine, N-(1-methylethyl)-N'-phenyl-
Formula: C15H18N2
CAS: 101-72-4
Melting point: 80.5
Instrument: SF-4
Origin: INSTITUTE OF ENERGY PROBLEMS OF CHEMICAL PHYSICS, RAS
Wavelength (nm)	Logarithm epsilon
222.74	3.789
224.11	3.779
225.65	3.77
227.19	3.768
228.73	3.765
230.27	3.768
231.81	3.77
233.18	3.781
234.55	3.792
235.75	3.805
236.94	3.82
238.14	3.835
239.17	3.851
240.37	3.865
241.56	3.878
242.76	3.891
243.96	3.902
245.33	3.908
246.7	3.914
248.07	3.924
249.44	3.931
250.64	3.941
251.66	3.954
252.86	3.965
253.89	3.975
255.09	3.984
256.11	3.994
257.14	4.005
258.17	4.015
259.19	4.026
260.22	4.035
261.25	4.044
262.27	4.053
263.3	4.063
264.33	4.071
265.35	4.08
266.21	4.089
267.24	4.097
268.26	4.105
269.12	4.115
270.15	4.123
271	4.132
271.86	4.141
272.71	4.15
273.74	4.158
274.6	4.166
275.62	4.174
276.31	4.183
277.33	4.19
278.19	4.197
279.22	4.205
280.07	4.213
281.1	4.22
282.13	4.227
283.15	4.233
284.01	4.24
285.04	4.247
285.89	4.254
286.75	4.261
287.77	4.267
288.8	4.274
290.34	4.275
291.88	4.274
292.91	4.268
293.76	4.262
294.28	4.255
295.13	4.247
295.65	4.24
296.16	4.232
296.67	4.225
297.19	4.217
297.7	4.209
298.21	4.2
298.73	4.192
299.24	4.184
299.75	4.175
300.27	4.166
300.78	4.157
301.29	4.148
301.81	4.138
302.49	4.129
302.83	4.118
303.52	4.107
304.2	4.097
304.72	4.085
305.23	4.074
305.74	4.063
306.26	4.05
306.77	4.038
307.28	4.026
307.97	4.013
308.48	3.999
309.17	3.985
309.85	3.972
310.37	3.957
310.88	3.943
311.56	3.927
312.42	3.912
312.93	3.893
313.62	3.876
314.47	3.861
314.99	3.842
315.84	3.825
316.36	3.805
317.21	3.787
318.07	3.765
318.92	3.742
319.78	3.717
320.81	3.695
321.83	3.674
322.69	3.649
323.71	3.623
324.91	3.598
325.94	3.568
326.97	3.541
327.99	3.512
329.19	3.48
330.22	3.441
331.59	3.41
332.79	3.377
333.98	3.341
335.35	3.302
336.72	3.259
338.09	3.211
339.46	3.179
340.83	3.134
342.37	3.096
343.74	3.04
345.11	2.975
346.65	2.939
