Uv/Vis Spectrum: Benzene, 1,4-bis(1,1-dimethylethyl)-
Formula: C14H22
CAS: 1012-72-2
Melting point: 78
Instrument: Spekromom 201
Origin: INSTITUTE OF ENERGY PROBLEMS OF CHEMICAL PHYSICS, RAS
Wavelength (nm)	Logarithm epsilon
205.93	3.888
206.09	3.892
206.26	3.892
206.42	3.892
206.59	3.895
206.75	3.895
206.92	3.898
207.08	3.898
207.25	3.898
207.41	3.902
207.58	3.902
207.74	3.902
207.91	3.905
208.07	3.905
208.23	3.905
208.4	3.908
208.56	3.908
208.73	3.908
208.89	3.912
209.06	3.908
209.55	3.912
210.05	3.915
210.54	3.919
211.03	3.925
211.53	3.929
212.02	3.932
212.52	3.939
213.01	3.942
213.51	3.949
214	3.953
214.49	3.953
214.99	3.956
215.48	3.956
215.98	3.953
216.47	3.946
216.96	3.942
217.46	3.936
217.95	3.932
218.45	3.929
218.94	3.919
219.43	3.912
219.93	3.898
220.42	3.885
220.92	3.864
221.41	3.841
221.9	3.814
222.4	3.776
222.89	3.732
223.39	3.675
223.88	3.603
224.38	3.525
224.87	3.454
225.36	3.373
225.86	3.278
226.35	3.18
226.85	3.071
227.34	2.966
227.83	2.844
228.33	2.719
228.82	2.597
229.32	2.471
229.76	2.361
230.3	2.217
230.8	2.125
231.27	2.055
231.79	1.99
232.28	1.936
232.78	1.895
233.27	1.871
233.76	1.851
234.26	1.834
234.75	1.817
235.25	1.814
235.74	1.814
236.23	1.817
236.73	1.824
237.22	1.831
237.72	1.841
238.21	1.858
238.7	1.871
239.2	1.885
239.69	1.898
240.19	1.915
240.68	1.929
241.17	1.946
241.67	1.963
242.16	1.973
242.66	1.99
243.15	2.007
243.65	2.024
244.14	2.041
244.63	2.058
245.13	2.075
245.62	2.092
246.12	2.108
246.61	2.125
247.1	2.142
247.6	2.159
248.09	2.176
248.59	2.193
249.08	2.21
249.57	2.227
250.07	2.247
250.56	2.264
251.06	2.281
251.55	2.288
252.04	2.302
252.54	2.315
253.03	2.322
253.53	2.336
254.02	2.349
254.52	2.363
255.01	2.376
255.5	2.393
256	2.41
256.49	2.437
256.99	2.451
257.48	2.454
257.97	2.444
258.47	2.431
258.96	2.424
259.46	2.427
259.95	2.434
260.44	2.451
260.94	2.471
261.43	2.495
261.93	2.519
262.42	2.536
262.92	2.559
263.41	2.566
263.9	2.559
264.4	2.525
264.89	2.492
265.39	2.461
265.88	2.441
266.37	2.414
266.87	2.386
267.36	2.369
267.86	2.346
268.35	2.339
268.84	2.339
269.34	2.346
269.83	2.366
270.1	2.392
270.33	2.434
270.53	2.47
270.82	2.502
271.06	2.51
271.31	2.502
271.52	2.481
271.85	2.381
272.3	2.231
272.8	2.088
273.29	1.946
273.79	1.847
274.28	1.749
274.77	1.647
275.27	1.569
275.76	1.485
276.26	1.403
276.75	1.325
277.24	1.247
277.74	1.176
278.23	1.112
278.73	1.044
279.22	0.99
279.71	0.929
