Uv/Vis Spectrum: Phosphorous acid, triphenyl ester
Formula: C18H15O3P
CAS: 101-02-0
Melting point: 25
Boiling point: 360
Instrument: SF-4
Origin: INSTITUTE OF ENERGY PROBLEMS OF CHEMICAL PHYSICS, RAS
Wavelength (nm)	Logarithm epsilon
242.71	2.409
244.21	2.474
245.59	2.539
246.95	2.612
248.14	2.675
249.32	2.74
250.25	2.799
251.19	2.855
252.23	2.912
253	2.951
253.9	2.993
254.75	3.031
255.73	3.071
256.61	3.102
257.58	3.137
258.47	3.163
259.49	3.186
260.68	3.207
261.86	3.227
263.22	3.24
264.75	3.243
266.27	3.233
267.46	3.217
268.47	3.196
269.49	3.171
270.34	3.144
271.19	3.115
272.03	3.084
272.88	3.046
273.73	3.004
274.58	2.964
275.59	2.92
276.61	2.87
277.63	2.814
278.64	2.76
