Uv/Vis Spectrum: 1,4-Benzenediamine, N-phenyl-
Formula: C12H12N2
CAS: 101-54-2
Melting point: 73-75
Instrument: Unicam SP 800
Origin: INSTITUTE OF ENERGY PROBLEMS OF CHEMICAL PHYSICS, RAS
Wavelength (nm)	Logarithm epsilon
202.02	4.647
203.54	4.647
204.89	4.63
205.73	4.606
206.74	4.582
207.41	4.554
208.09	4.527
208.76	4.5
209.27	4.472
209.77	4.445
210.28	4.417
210.78	4.39
211.29	4.359
211.63	4.328
212.13	4.297
212.47	4.266
212.81	4.236
213.14	4.205
213.48	4.174
213.99	4.147
214.38	4.117
214.83	4.088
215.33	4.061
215.84	4.033
216.51	4.006
217.02	3.979
217.69	3.951
218.53	3.924
219.21	3.896
220.05	3.872
221.06	3.848
222.41	3.831
223.76	3.821
225.27	3.814
226.79	3.814
228.31	3.807
229.82	3.8
231.34	3.797
232.86	3.793
234.37	3.797
235.72	3.811
237.24	3.821
238.59	3.831
239.93	3.845
241.45	3.848
242.8	3.859
244.31	3.862
245.83	3.865
247.35	3.872
248.86	3.872
250.38	3.872
251.9	3.876
253.41	3.876
254.76	3.886
256.28	3.893
257.63	3.907
258.97	3.92
260.15	3.937
261.33	3.955
262.51	3.975
263.69	3.992
264.87	4.013
266.05	4.033
267.23	4.054
268.41	4.071
269.59	4.088
270.94	4.105
272.12	4.123
273.46	4.14
274.81	4.157
276.16	4.174
277.51	4.191
278.86	4.205
280.2	4.219
281.55	4.232
282.9	4.243
284.42	4.249
285.93	4.26
287.45	4.26
288.97	4.263
290.48	4.256
291.83	4.243
293.35	4.232
294.86	4.222
296.21	4.208
297.56	4.195
298.74	4.174
299.75	4.153
300.76	4.129
301.94	4.112
302.95	4.092
303.79	4.064
304.8	4.04
305.81	4.02
306.99	3.999
307.84	3.975
308.85	3.951
309.86	3.931
310.7	3.903
311.54	3.876
312.72	3.855
313.73	3.831
314.58	3.807
315.42	3.783
316.26	3.759
317.1	3.735
317.95	3.708
318.79	3.684
319.63	3.656
320.39	3.63
321.15	3.605
321.99	3.578
322.7	3.552
323.37	3.526
324.09	3.5
324.91	3.474
325.78	3.446
326.59	3.419
327.42	3.395
328.39	3.368
329.11	3.346
330.08	3.317
330.87	3.292
331.76	3.266
332.44	3.238
333.28	3.214
333.95	3.187
334.8	3.163
335.47	3.135
336.31	3.111
336.99	3.084
337.66	3.057
338.5	3.033
339.01	3.005
339.68	2.978
340.36	2.95
340.86	2.923
341.7	2.895
342.38	2.868
342.88	2.841
343.56	2.813
344.06	2.786
344.91	2.758
345.41	2.731
345.92	2.704
346.59	2.676
347.1	2.649
347.6	2.621
348.11	2.594
348.61	2.566
349.12	2.539
349.62	2.512
350.3	2.484
350.8	2.457
351.14	2.426
351.48	2.395
352.15	2.368
352.49	2.337
352.99	2.309
353.5	2.282
354	2.255
354.34	2.224
354.85	2.196
355.35	2.169
355.86	2.138
356.36	2.107
356.7	2.076
357.21	2.049
357.71	2.018
358.22	1.991
358.38	1.96
358.89	1.932
359.23	1.901
359.73	1.874
360.07	1.843
360.41	1.812
360.91	1.781
361.25	1.751
361.75	1.723
362.09	1.692
362.6	1.662
362.93	1.631
363.27	1.6
363.78	1.569
364.11	1.538
364.62	1.507
364.96	1.476
365.29	1.446
365.8	1.418
366.14	1.387
366.47	1.356
366.98	1.329
367.48	1.298
367.65	1.267
368.16	1.24
368.66	1.209
369.17	1.178
369.51	1.147
370.01	1.12
370.52	1.093
371.02	1.062
371.53	1.034
372.03	1.007
372.54	0.979
373.04	0.952
373.55	0.925
374.05	0.897
374.73	0.87
375.23	0.842
375.74	0.815
376.41	0.787
377.09	0.76
377.76	0.733
