Uv/Vis Spectrum: Diphenyl ether
Formula: C12H10O
CAS: 101-84-8
Melting point: 26.8
Boiling point: 258
Instrument: Unicam SP 700
Origin: INSTITUTE OF ENERGY PROBLEMS OF CHEMICAL PHYSICS, RAS
Wavelength (nm)	Logarithm epsilon
289.188	1.27945
288.919	1.34094
288.686	1.39405
288.485	1.43986
288.309	1.47942
288.154	1.5138
288.014	1.54406
287.884	1.57125
287.759	1.59645
287.634	1.62071
287.503	1.64509
287.362	1.67066
287.205	1.69849
287.027	1.72962
286.824	1.76512
286.824	1.76512
286.725	1.77839
286.566	1.81092
286.364	1.85674
286.136	1.90986
285.9	1.96428
285.673	2.01403
285.473	2.05312
285.315	2.07556
285.315	2.07556
285.172	2.10958
285.031	2.14364
284.892	2.17773
284.755	2.21185
284.619	2.246
284.483	2.28017
284.347	2.31437
284.212	2.34859
284.076	2.38282
283.94	2.41707
283.802	2.45133
283.663	2.48559
283.522	2.51986
283.378	2.55413
283.233	2.5884
283.084	2.62267
282.932	2.65693
282.777	2.69118
282.617	2.72541
282.454	2.75963
282.285	2.79384
282.112	2.82801
281.933	2.86217
281.749	2.8963
281.559	2.93039
281.363	2.96446
281.16	2.99848
280.95	3.03247
280.733	3.06641
280.733	3.06641
279.79	3.15584
279.366	3.1927
279.095	3.20858
279.095	3.20858
278.719	3.21384
278.57	3.21882
278.501	3.22579
278.339	3.21296
277.484	3.1934
277.06	3.1659
276.121	3.14121
275.865	3.13378
275.801	3.13887
275.705	3.141
275.381	3.14354
275.381	3.14354
275.016	3.16338
274.575	3.18471
273.942	3.20028
273.942	3.20028
273.487	3.22535
272.961	3.24974
272.141	3.27191
272.141	3.27191
271.876	3.27192
271.611	3.27193
271.347	3.27194
271.347	3.27194
270.358	3.24382
269.377	3.2161
267.924	3.19074
267.924	3.19074
266.818	3.19195
265.81	3.19435
264.674	3.19624
264.674	3.19624
263.985	3.18723
263.232	3.17771
262.444	3.16631
262.444	3.16631
262.094	3.15006
261.42	3.13087
260.979	3.1107
260.979	3.1107
260.358	3.09524
259.824	3.0779
258.602	3.06384
258.602	3.06384
258.202	3.05538
257.796	3.04686
257.388	3.03823
257.388	3.03823
256.298	3.02131
255.709	3.01207
255.412	3.00522
255.412	3.00522
254.388	2.98916
253.351	2.9718
252.041	2.9602
251.845	2.95918
250.612	2.96515
250.223	2.97393
249.771	2.98825
249.771	2.98825
249.179	3.02152
248.631	3.05507
248.121	3.08887
247.646	3.12287
247.201	3.15704
246.784	3.19135
246.389	3.22574
246.014	3.2602
245.654	3.29467
245.306	3.32912
244.966	3.36351
244.63	3.39781
244.295	3.43198
243.958	3.46597
243.614	3.49976
243.614	3.49976
243.12	3.53844
242.627	3.57701
242.136	3.61551
242.136	3.61551
241.525	3.64917
240.907	3.68261
240.268	3.7157
239.593	3.74828
238.869	3.78021
238.083	3.81135
237.222	3.84154
236.274	3.87065
235.226	3.89852
234.07	3.925
232.793	3.94996
231.386	3.97324
229.843	3.9947
229.843	3.9947
229.712	4.00172
229.611	4.00531
229.453	4.00857
229.453	4.00857
228.113	4.01853
226.803	4.02933
225.859	4.03568
225.859	4.03568
224.031	4.035
222.229	4.03432
220.451	4.03364
220.451	4.03364
217.986	4.04573
216.015	4.06852
214.111	4.10145
214.111	4.10145
213.553	4.11863
212.845	4.14147
212.01	4.16907
211.073	4.20057
210.059	4.23508
208.99	4.27171
207.889	4.3096
206.778	4.34787
206.778	4.34787
206.442	4.35742
205.427	4.38844
202.942	4.46379
202.942	4.46379
202.221	4.48523
200.93	4.52153
200.223	4.54297
200.223	4.54297
199.648	4.55685
198.596	4.5837
196.948	4.62449
