Uv/Vis Spectrum: Pyridinium,3-hydroxy-1-methoxy-,hydroxide,inner salt
Formula: C6H7NO2
CAS: 101615-77-4
Instrument: Varian 2000
Origin: INSTITUTE OF ENERGY PROBLEMS OF CHEMICAL PHYSICS, RAS
Wavelength (nm)	Logarithm epsilon
212.136	4.248
212.636	4.242
213.136	4.236
213.636	4.228
214.136	4.219
214.636	4.208
215.136	4.195
215.636	4.179
216.136	4.16
216.636	4.138
217.136	4.112
217.636	4.083
218.136	4.051
218.636	4.014
219.136	3.973
219.636	3.928
220.136	3.878
220.636	3.823
221.136	3.762
221.142	3.769
221.642	3.698
222.142	3.614
222.642	3.525
223.142	3.439
223.642	3.359
224.142	3.29
224.642	3.234
225.142	3.193
225.642	3.168
226.142	3.157
226.642	3.161
227.142	3.176
227.642	3.202
228.142	3.235
228.642	3.274
229.142	3.316
229.642	3.358
230.142	3.4
230.642	3.439
231.142	3.475
231.224	3.483
231.724	3.517
232.224	3.55
232.724	3.582
233.224	3.614
233.724	3.646
234.224	3.679
234.724	3.711
235.224	3.744
235.724	3.776
236.224	3.808
236.724	3.837
237.224	3.864
237.724	3.888
238.224	3.908
238.724	3.922
239.224	3.931
239.724	3.932
240.224	3.926
240.724	3.911
241.224	3.888
241.724	3.855
242.224	3.812
242.814	3.751
243.314	3.691
243.814	3.597
244.314	3.499
244.814	3.399
245.314	3.299
245.814	3.201
246.314	3.105
246.814	3.013
247.314	2.926
247.814	2.845
248.314	2.77
248.814	2.702
249.314	2.641
249.814	2.587
250.314	2.541
250.814	2.502
251.314	2.47
251.814	2.446
252.314	2.428
252.814	2.417
253.314	2.412
253.814	2.413
254.314	2.419
254.814	2.43
255.314	2.445
255.814	2.464
256.314	2.486
256.814	2.512
257.314	2.539
257.814	2.568
258.314	2.599
258.814	2.63
259.314	2.662
259.814	2.694
260.314	2.727
260.814	2.759
261.314	2.79
261.814	2.821
262.314	2.851
262.814	2.881
263.314	2.909
263.814	2.937
264.314	2.965
264.814	2.992
265.314	3.02
265.814	3.048
265.815	3.046
266.315	3.076
266.815	3.106
267.315	3.137
267.815	3.168
268.315	3.199
268.815	3.231
269.315	3.261
269.815	3.291
270.315	3.321
270.815	3.349
271.315	3.377
271.815	3.403
272.315	3.428
272.815	3.452
273.315	3.474
273.815	3.495
274.315	3.514
274.815	3.531
275.315	3.548
275.815	3.562
276.315	3.575
276.815	3.586
277.315	3.596
277.815	3.604
278.315	3.61
278.815	3.615
279.315	3.618
279.815	3.62
280.315	3.62
280.815	3.619
281.315	3.616
281.815	3.611
282.315	3.605
282.815	3.598
283.315	3.589
283.815	3.578
284.315	3.566
284.815	3.552
285.315	3.536
285.815	3.519
286.315	3.499
286.815	3.478
287.315	3.454
287.815	3.428
288.315	3.4
288.815	3.369
289.315	3.335
289.815	3.299
290.315	3.258
290.815	3.215
291.315	3.167
291.815	3.115
292.315	3.059
292.815	2.998
293.315	2.931
293.815	2.859
294.315	2.78
294.815	2.694
295.315	2.602
295.815	2.501
296.315	2.391
296.815	2.273
297.315	2.144
297.815	2.005
