Uv/Vis Spectrum: Methanone, (3-chlorophenyl)phenyl-
Formula: C13H9ClO
CAS: 1016-78-0
Melting point: 82-83
Instrument: Unicam SP 700
Origin: INSTITUTE OF ENERGY PROBLEMS OF CHEMICAL PHYSICS, RAS
Wavelength (nm)	Logarithm epsilon
210.92	4.438
212.43	4.435
213.6	4.418
214.61	4.397
215.62	4.374
216.63	4.353
217.3	4.326
218.14	4.302
218.81	4.275
219.31	4.248
219.98	4.22
220.66	4.193
221.16	4.166
221.66	4.139
222.33	4.112
222.84	4.084
223.17	4.054
223.68	4.026
224.35	3.999
224.85	3.969
225.53	3.941
226.36	3.914
227.71	3.901
229.22	3.907
230.56	3.924
231.57	3.945
232.58	3.965
233.75	3.986
234.76	4.009
235.77	4.033
236.94	4.054
237.95	4.074
238.96	4.095
239.97	4.115
241.14	4.135
242.15	4.159
243.33	4.176
244.67	4.193
246.01	4.203
247.36	4.217
248.87	4.224
250.38	4.231
251.89	4.227
253.23	4.21
254.41	4.193
255.25	4.169
256.09	4.142
256.76	4.115
257.43	4.088
257.94	4.061
258.44	4.033
259.11	4.006
259.78	3.979
260.29	3.952
260.79	3.924
261.29	3.897
261.8	3.87
262.3	3.843
262.81	3.815
263.31	3.785
263.81	3.758
264.32	3.73
264.82	3.703
265.32	3.676
265.83	3.649
266.5	3.621
267	3.594
267.68	3.567
268.35	3.54
269.02	3.512
269.86	3.489
270.53	3.461
271.2	3.434
272.21	3.41
273.39	3.393
274.73	3.376
276.07	3.359
277.58	3.349
279.09	3.342
280.61	3.339
282.12	3.329
283.63	3.322
284.97	3.308
286.32	3.291
287.66	3.274
288.83	3.257
290.01	3.237
291.02	3.213
292.03	3.192
292.87	3.169
293.7	3.145
294.38	3.118
295.22	3.094
295.83	3.072
296.56	3.039
297.13	3.014
297.65	2.988
298.24	2.958
298.74	2.93
299.08	2.9
299.58	2.873
299.98	2.84
300.25	2.811
300.59	2.781
300.96	2.755
301.43	2.723
301.93	2.692
302.27	2.661
302.6	2.631
302.94	2.6
303.44	2.573
303.78	2.542
304.12	2.512
304.45	2.481
304.85	2.455
305.29	2.42
305.69	2.391
306.13	2.359
306.47	2.328
306.8	2.297
307.31	2.267
307.64	2.236
307.81	2.205
308.31	2.178
308.65	2.147
309.15	2.12
309.66	2.09
309.99	2.059
310.5	2.028
310.83	1.998
311.67	1.97
312.85	1.95
314.36	1.953
315.78	1.966
317.05	1.977
318.39	1.991
319.73	2.005
321.17	2.015
322.5	2.028
323.93	2.039
325.4	2.049
326.81	2.06
328.22	2.071
329.64	2.079
330.99	2.09
332.37	2.098
333.94	2.104
335.52	2.107
337.03	2.107
338.54	2.107
340.05	2.107
341.56	2.103
343.07	2.099
344.56	2.095
346.1	2.09
347.54	2.083
348.87	2.077
350.46	2.066
351.98	2.056
353.35	2.044
354.83	2.032
356.17	2.02
357.5	2.007
358.82	1.994
360.37	1.981
361.72	1.967
362.89	1.95
364.24	1.933
365.58	1.916
366.75	1.899
367.93	1.879
369.11	1.862
370.28	1.845
371.46	1.828
372.63	1.807
373.81	1.79
374.98	1.77
376.16	1.749
377.33	1.732
378.34	1.712
379.35	1.691
380.52	1.671
