Uv/Vis Spectrum: Benzeneacetic acid, methyl ester
Formula: C9H10O2
CAS: 101-41-7
Boiling point: 78/ 1 mm
Instrument: Beckman DK 2
Origin: INSTITUTE OF ENERGY PROBLEMS OF CHEMICAL PHYSICS, RAS
Wavelength (nm)	Logarithm epsilon
233.32	2.38
233.38	2.378
233.45	2.374
233.57	2.365
233.7	2.362
233.82	2.347
233.95	2.334
234.07	2.326
234.2	2.314
234.32	2.304
234.45	2.293
234.57	2.277
234.7	2.27
234.82	2.263
234.95	2.255
235.07	2.248
235.2	2.239
235.33	2.231
235.45	2.223
235.58	2.215
235.7	2.207
235.83	2.199
235.95	2.188
236.08	2.182
236.2	2.175
236.33	2.169
236.45	2.162
236.58	2.156
236.7	2.15
236.83	2.144
236.95	2.137
237.08	2.132
237.2	2.128
237.33	2.124
237.46	2.12
237.58	2.116
237.71	2.112
237.83	2.107
237.96	2.103
238.08	2.099
238.21	2.095
238.33	2.09
238.46	2.087
238.58	2.083
238.71	2.079
238.83	2.076
238.96	2.071
239.08	2.068
239.21	2.064
239.33	2.061
239.46	2.056
239.59	2.053
239.71	2.049
239.84	2.046
239.96	2.041
240.09	2.037
240.21	2.033
240.34	2.03
240.59	2.022
240.71	2.019
240.84	2.017
240.96	2.014
241.09	2.01
241.21	2.008
241.34	2.005
241.46	2.002
241.59	2
241.72	1.994
241.84	1.989
241.97	1.986
242.09	1.983
242.22	1.985
242.34	1.985
242.47	1.981
242.59	1.981
242.72	1.981
242.84	1.979
242.97	1.981
243.09	1.981
243.22	1.981
243.34	1.981
243.47	1.981
243.59	1.981
243.72	1.981
243.85	1.983
243.97	1.986
244.1	1.988
244.22	1.992
244.35	1.996
244.47	1.998
244.6	2.001
244.72	2.005
244.85	2.009
244.97	2.013
245.1	2.017
245.22	2.021
245.35	2.023
245.47	2.028
245.6	2.031
245.72	2.035
245.85	2.037
245.98	2.041
246.1	2.042
246.23	2.044
246.35	2.047
246.48	2.048
246.6	2.05
246.73	2.052
246.85	2.053
246.98	2.054
247.1	2.055
247.23	2.055
247.35	2.055
247.48	2.055
247.6	2.055
247.73	2.054
247.85	2.054
247.98	2.054
248.11	2.054
248.23	2.054
248.36	2.054
248.48	2.055
248.61	2.058
248.73	2.058
248.86	2.058
248.98	2.06
249.11	2.062
249.23	2.064
249.36	2.068
249.48	2.074
249.61	2.079
249.73	2.084
249.86	2.088
249.98	2.094
250.11	2.098
250.24	2.102
250.36	2.106
250.49	2.11
250.61	2.114
250.74	2.118
250.86	2.122
250.99	2.127
251.11	2.132
251.24	2.138
251.36	2.143
251.49	2.149
251.61	2.154
251.74	2.159
251.86	2.164
251.99	2.17
252.11	2.173
252.24	2.175
252.37	2.177
252.49	2.178
252.62	2.18
252.74	2.181
252.87	2.179
252.99	2.176
253.12	2.172
253.24	2.17
253.37	2.164
253.49	2.158
253.62	2.154
253.74	2.148
253.87	2.143
253.99	2.137
254.12	2.132
254.24	2.128
254.37	2.125
254.5	2.124
254.62	2.122
254.75	2.121
254.87	2.121
255	2.123
255.12	2.124
255.25	2.127
255.37	2.129
255.5	2.135
255.62	2.142
255.75	2.149
255.87	2.155
256	2.162
256.12	2.168
256.25	2.173
256.37	2.18
256.5	2.184
256.63	2.193
256.75	2.197
256.88	2.203
257	2.21
257.13	2.217
257.25	2.223
257.38	2.231
257.5	2.24
257.63	2.248
257.75	2.257
257.88	2.263
258	2.269
258.13	2.275
258.25	2.28
258.38	2.281
258.5	2.28
258.63	2.278
258.88	2.271
259.01	2.265
259.13	2.258
259.26	2.251
259.38	2.244
259.51	2.238
259.63	2.23
259.76	2.223
259.88	2.215
260.01	2.206
260.13	2.193
260.26	2.182
260.38	2.172
260.51	2.168
260.63	2.158
260.76	2.146
260.89	2.135
261.01	2.123
261.14	2.113
261.26	2.101
261.39	2.095
261.51	2.084
261.64	2.071
261.76	2.066
261.89	2.066
262.01	2.061
262.14	2.059
262.26	2.063
262.39	2.063
262.51	2.068
262.64	2.072
262.76	2.078
262.89	2.089
263.02	2.1
263.14	2.112
263.27	2.122
263.39	2.131
263.52	2.139
263.64	2.147
263.89	2.156
264.02	2.153
264.14	2.147
264.27	2.142
264.39	2.137
264.52	2.131
264.64	2.124
264.77	2.116
264.89	2.106
265.02	2.097
265.15	2.088
265.27	2.078
265.4	2.068
265.52	2.058
265.65	2.048
265.77	2.037
265.9	2.026
266.02	2.014
266.15	2.002
266.27	1.99
266.4	1.972
266.52	1.959
266.65	1.94
266.77	1.927
266.9	1.916
267.02	1.903
267.15	1.891
267.28	1.88
267.4	1.866
267.53	1.849
267.65	1.837
267.78	1.834
267.9	1.815
268.03	1.797
268.15	1.788
268.28	1.777
268.4	1.759
268.53	1.744
268.65	1.725
268.78	1.709
268.9	1.693
269.03	1.682
269.15	1.671
269.78	1.582
269.91	1.564
270.03	1.542
270.16	1.534
270.28	1.506
270.41	1.484
270.53	1.466
270.66	1.448
270.91	1.397
271.41	1.321
271.72	1.266
272.04	1.204
272.35	1.131
272.66	1.055
272.98	0.949
273.48	0.866
273.98	0.786
274.42	0.629
274.92	0.48
275.42	0.253
