Uv/Vis Spectrum: Phenazine,2-chloro-10-oxide
Formula: C12H7ClN2O
CAS: 1019-15-4
Melting point: 175-176
Instrument: unknown
Origin: INSTITUTE OF ENERGY PROBLEMS OF CHEMICAL PHYSICS, RAS
Wavelength (nm)	Logarithm epsilon
353.56	3.666
353.88	3.667
354.2	3.67
354.52	3.673
354.84	3.676
355.48	3.686
356.44	3.698
357.4	3.715
358.36	3.73
359.33	3.74
361.25	3.749
362.21	3.747
365.09	3.74
367.02	3.732
368.94	3.729
369.9	3.727
370.86	3.727
371.83	3.729
372.79	3.735
373.75	3.74
374.71	3.754
375.67	3.76
376.63	3.774
377.6	3.798
378.56	3.814
379.52	3.827
380.48	3.843
381.44	3.877
382.4	3.897
383.37	3.928
384.33	3.948
385.29	3.98
386.25	3.997
387.21	4.015
388.17	4.02
390.1	4.014
391.06	3.986
392.02	3.932
392.98	3.901
393.94	3.874
394.9	3.849
395.87	3.84
398.75	3.826
401.64	3.827
402.6	3.829
404.52	3.838
406.44	3.849
408.37	3.869
410.29	3.878
411.25	3.877
413.18	3.869
415.1	3.855
416.06	3.846
417.02	3.834
418.95	3.823
419.91	3.821
421.83	3.817
424.71	3.817
425.68	3.82
426.64	3.821
428.56	3.829
429.52	3.835
431.45	3.846
434.33	3.857
437.22	3.854
438.18	3.852
440.1	3.838
441.06	3.821
442.02	3.806
442.99	3.79
443.95	3.783
444.91	3.76
445.87	3.744
446.83	3.738
