Uv/Vis Spectrum: 1,2-Benzenediol, 3,5-bis(1,1-dimethylethyl)-
Formula: C14H22O2
CAS: 1020-31-1
Melting point: 96-99
Instrument: Cary 17D
Origin: INSTITUTE OF ENERGY PROBLEMS OF CHEMICAL PHYSICS, RAS
Wavelength (nm)	Logarithm epsilon
263.23	2.75
263.97	2.762
264.7	2.773
265.53	2.794
266.18	2.816
266.91	2.845
267.65	2.873
268.38	2.899
269.13	2.925
269.87	2.956
270.59	2.989
271.32	3.025
272.06	3.061
272.77	3.09
273.39	3.123
274.02	3.158
274.76	3.2
275.3	3.23
275.84	3.259
276.5	3.292
277.29	3.325
277.95	3.345
278.68	3.358
279.41	3.367
280.15	3.374
280.88	3.384
281.62	3.385
282.35	3.386
283.09	3.388
283.82	3.388
284.56	3.388
285.29	3.373
286.03	3.343
286.76	3.314
287.5	3.282
288.23	3.246
288.97	3.209
289.7	3.179
290.26	3.154
290.83	3.124
291.65	3.085
292.64	3.03
293.38	2.982
294.08	2.916
294.85	2.826
295.56	2.739
296.28	2.647
297.06	2.534
297.75	2.437
298.51	2.33
299.17	2.263
300	2.199
300.73	2.155
301.47	2.105
302.19	2.06
302.89	2.012
303.7	1.96
304.41	1.912
305.05	1.862
305.84	1.794
306.63	1.718
307.35	1.638
308.09	1.554
