Uv/Vis Spectrum: 1,3-Diphenylguanidine
Formula: C13H13N3
CAS: 102-06-7
Melting point: 65
Instrument: SF-4
Origin: INSTITUTE OF ENERGY PROBLEMS OF CHEMICAL PHYSICS, RAS
Wavelength (nm)	Logarithm epsilon
213.57	4.288
214.6	4.263
215.62	4.228
216.64	4.196
217.66	4.167
218.68	4.145
219.7	4.12
220.72	4.1
221.74	4.089
222.77	4.077
223.79	4.067
224.81	4.059
225.83	4.055
226.85	4.048
227.87	4.049
228.89	4.052
229.91	4.058
230.94	4.063
231.96	4.07
232.98	4.078
234	4.089
235.02	4.096
236.04	4.106
237.06	4.118
238.09	4.13
239.11	4.139
240.13	4.149
241.15	4.16
242.17	4.171
243.19	4.182
244.21	4.192
245.23	4.201
246.26	4.211
247.28	4.221
248.3	4.23
249.32	4.239
250.34	4.248
251.36	4.254
252.38	4.26
253.4	4.264
254.43	4.269
255.45	4.27
256.47	4.27
257.49	4.269
258.51	4.267
259.53	4.263
260.55	4.258
261.57	4.25
262.6	4.241
263.62	4.23
264.64	4.218
265.66	4.206
266.68	4.191
267.7	4.175
268.72	4.161
269.74	4.146
270.77	4.13
271.79	4.111
272.81	4.087
273.83	4.066
274.85	4.045
275.87	4.023
276.89	4
277.91	3.975
278.94	3.951
279.96	3.925
280.98	3.896
282	3.865
283.02	3.845
284.02	3.816
284.96	3.788
285.82	3.76
286.85	3.726
287.7	3.695
288.73	3.658
289.94	3.605
291.19	3.56
292.08	3.525
293.23	3.488
294.26	3.456
295.28	3.427
296.3	3.397
297.32	3.37
298.34	3.342
299.24	3.323
300.38	3.297
301.18	3.28
302.19	3.259
303.17	3.243
304.47	3.217
305.38	3.194
306.51	3.166
307.35	3.143
308.28	3.12
309.31	3.092
310.49	3.063
311.62	3.038
312.64	3.012
313.68	2.989
315.1	2.95
315.98	2.922
316.97	2.891
318	2.856
319.13	2.817
320.47	2.77
322	2.712
