Uv/Vis Spectrum: Piperidine, 1,1'-dithiobis-
Formula: C10H20N2S2
CAS: 10220-20-9
Instrument: unknown
Origin: INSTITUTE OF ENERGY PROBLEMS OF CHEMICAL PHYSICS, RAS
Wavelength (nm)	Logarithm epsilon
209.99	3.888
210.2	3.887
210.42	3.885
210.63	3.882
210.84	3.881
211.05	3.879
211.26	3.876
211.48	3.875
211.69	3.873
211.9	3.871
212.54	3.86
213.39	3.851
214.23	3.839
215.08	3.831
215.93	3.824
216.78	3.816
217.63	3.807
218.48	3.799
219.33	3.791
220.17	3.785
221.02	3.777
221.87	3.77
222.72	3.763
223.57	3.759
224.42	3.752
225.26	3.745
226.11	3.74
226.96	3.739
227.81	3.735
228.66	3.735
229.51	3.737
230.36	3.737
231.2	3.742
232.05	3.745
232.9	3.75
233.75	3.757
234.6	3.765
235.45	3.773
236.29	3.781
237.14	3.79
237.99	3.801
238.84	3.81
239.69	3.823
240.54	3.835
241.39	3.843
242.23	3.86
243.08	3.874
243.93	3.887
244.78	3.901
245.63	3.913
246.48	3.927
247.32	3.939
248.17	3.95
249.02	3.959
249.87	3.968
250.72	3.974
251.57	3.981
252.42	3.985
253.26	3.985
254.11	3.983
254.96	3.973
255.81	3.959
256.66	3.944
257.51	3.932
258.35	3.918
259.2	3.906
260.05	3.892
260.9	3.874
261.75	3.856
262.6	3.828
263.45	3.803
264.29	3.777
265.14	3.75
265.99	3.725
266.84	3.693
267.69	3.67
268.54	3.641
269.38	3.606
270.23	3.58
271.08	3.552
271.93	3.517
272.78	3.488
273.63	3.457
274.48	3.427
275.32	3.395
276.17	3.368
277.02	3.34
277.87	3.309
278.72	3.276
279.57	3.246
280.42	3.219
281.26	3.19
282.11	3.152
282.96	3.119
283.81	3.09
284.66	3.058
285.51	3.025
286.35	2.989
287.2	2.949
288	2.919
288.9	2.882
289.75	2.844
290.57	2.802
291.45	2.756
292.19	2.72
293.14	2.666
293.88	2.624
294.84	2.578
295.65	2.538
296.54	2.498
297.38	2.435
298.22	2.378
299.08	2.32
299.91	2.244
300.72	2.172
301.63	2.093
302.48	2.011
303.29	1.943
304.03	1.878
305.02	1.778
