Uv/Vis Spectrum: 1,2,4-Trimethyl-5-isopropylbenzene
Formula: C12H18
CAS: 10222-95-4
Melting point: - 23
Boiling point: 214 - 214.5/ 752 mm
Instrument: unknown
Origin: INSTITUTE OF ENERGY PROBLEMS OF CHEMICAL PHYSICS, RAS
Wavelength (nm)	Logarithm epsilon
231.58	2.629
231.66	2.618
231.72	2.606
231.8	2.588
231.91	2.566
231.99	2.551
232.07	2.535
232.16	2.523
232.24	2.507
232.33	2.49
232.41	2.476
232.5	2.457
232.58	2.444
232.67	2.422
232.75	2.407
232.84	2.381
232.92	2.364
233.01	2.337
233.09	2.318
233.18	2.293
233.26	2.278
233.35	2.26
233.43	2.242
233.51	2.229
233.6	2.211
233.68	2.191
233.77	2.174
233.85	2.16
233.94	2.142
234.02	2.124
234.11	2.107
234.19	2.097
234.28	2.08
234.36	2.063
234.45	2.047
234.53	2.03
234.62	2.014
234.7	2.003
234.78	1.986
234.87	1.965
234.95	1.946
235.04	1.929
235.12	1.918
235.21	1.902
235.29	1.883
235.38	1.866
235.46	1.845
235.55	1.826
235.63	1.806
235.72	1.791
235.8	1.779
235.89	1.76
235.97	1.734
236.48	1.612
236.61	1.575
236.82	1.539
237.03	1.493
237.28	1.456
237.54	1.415
237.88	1.378
238.18	1.353
238.54	1.334
238.98	1.32
239.36	1.318
239.74	1.32
240.16	1.327
240.5	1.338
240.85	1.355
241.22	1.378
241.56	1.408
241.9	1.436
242.24	1.456
242.58	1.481
242.87	1.511
243.21	1.533
243.51	1.559
243.85	1.584
244.18	1.608
244.44	1.634
244.74	1.655
245.03	1.675
245.33	1.695
245.62	1.716
245.92	1.737
246.22	1.757
246.51	1.776
246.81	1.794
247.06	1.815
247.36	1.831
247.66	1.845
247.91	1.861
248.17	1.876
248.42	1.89
248.67	1.907
248.97	1.92
249.18	1.935
249.44	1.948
249.69	1.96
249.9	1.976
250.2	1.988
250.45	1.999
250.66	2.014
250.92	2.025
251.13	2.038
251.38	2.05
251.64	2.061
251.85	2.073
252.1	2.082
252.31	2.092
252.57	2.103
252.74	2.114
252.95	2.124
253.2	2.134
253.42	2.145
253.67	2.154
253.88	2.164
254.09	2.174
254.3	2.184
254.52	2.194
254.73	2.202
254.94	2.211
255.15	2.219
255.36	2.228
255.53	2.236
255.74	2.244
255.96	2.252
256.17	2.26
256.38	2.269
256.55	2.276
256.76	2.283
256.89	2.292
257.1	2.299
257.31	2.307
257.48	2.314
257.65	2.321
257.82	2.328
257.95	2.336
258.12	2.343
258.29	2.349
258.41	2.356
258.58	2.362
258.71	2.369
258.84	2.376
258.96	2.382
259.13	2.388
259.3	2.394
259.51	2.4
259.72	2.405
259.94	2.41
260.19	2.415
260.4	2.42
260.66	2.425
260.91	2.429
261.12	2.435
261.38	2.44
261.59	2.445
261.8	2.45
262.01	2.455
262.18	2.46
262.31	2.465
262.52	2.47
262.65	2.476
262.77	2.481
262.94	2.486
263.07	2.491
263.28	2.496
263.45	2.5
263.62	2.505
263.79	2.51
264	2.514
264.21	2.518
264.47	2.522
264.68	2.526
264.89	2.53
265.02	2.535
265.14	2.54
265.23	2.544
265.36	2.549
265.48	2.554
265.57	2.558
265.57	2.563
265.65	2.568
265.74	2.572
265.82	2.576
265.86	2.581
265.95	2.585
265.95	2.59
266.03	2.594
266.08	2.598
266.16	2.602
266.2	2.606
266.29	2.611
266.37	2.615
266.46	2.619
266.5	2.623
266.63	2.627
266.71	2.63
266.75	2.634
266.84	2.638
266.92	2.642
267.05	2.646
267.18	2.65
267.26	2.653
267.43	2.656
267.47	2.656
267.52	2.657
267.56	2.657
267.6	2.657
267.64	2.658
267.69	2.658
267.77	2.66
267.94	2.662
268.11	2.664
268.28	2.664
268.45	2.663
268.62	2.658
268.79	2.657
268.96	2.655
269.12	2.65
269.29	2.645
269.46	2.637
269.63	2.632
269.8	2.625
269.97	2.62
270.14	2.617
270.31	2.613
270.48	2.611
270.65	2.609
270.82	2.608
270.99	2.607
271.16	2.606
271.33	2.606
271.5	2.606
271.67	2.604
271.83	2.603
272	2.601
272.17	2.599
272.34	2.596
272.51	2.594
272.68	2.591
272.85	2.588
273.02	2.586
273.19	2.583
273.36	2.58
273.53	2.577
273.7	2.575
273.87	2.572
274.04	2.57
274.21	2.568
274.38	2.566
274.54	2.566
274.71	2.567
274.88	2.571
275.01	2.577
275.12	2.582
275.25	2.588
275.39	2.595
275.53	2.603
275.69	2.612
275.83	2.621
275.9	2.628
276	2.638
276.13	2.651
276.24	2.659
276.41	2.666
276.58	2.671
276.75	2.674
276.92	2.675
277.09	2.675
277.25	2.671
277.42	2.665
277.59	2.655
277.72	2.644
277.85	2.634
277.99	2.619
278.12	2.604
278.24	2.589
278.35	2.577
278.51	2.555
278.69	2.532
278.74	2.522
278.91	2.493
279.08	2.468
279.24	2.438
279.41	2.41
279.58	2.373
279.75	2.336
279.92	2.306
280.09	2.259
280.26	2.224
280.43	2.184
280.6	2.123
280.77	2.073
280.94	2.025
281.11	1.95
281.28	1.888
281.45	1.829
281.62	1.76
281.79	1.687
281.95	1.647
282.12	1.594
282.29	1.533
282.46	1.487
282.63	1.443
282.8	1.401
282.97	1.37
283.14	1.329
283.31	1.293
283.48	1.253
