Uv/Vis Spectrum: Benzoic acid, 3-methoxy-, ethyl ester
Formula: C10H12O3
CAS: 10259-22-0
Boiling point: 255-260
Instrument: Unicam SP 500
Origin: INSTITUTE OF ENERGY PROBLEMS OF CHEMICAL PHYSICS, RAS
Wavelength (nm)	Logarithm epsilon
201.84	4.562
202.18	4.565
202.51	4.568
203.01	4.572
203.55	4.577
204.42	4.587
205.19	4.596
205.99	4.604
206.86	4.616
207.73	4.627
208.54	4.636
209.38	4.647
210.21	4.65
211.05	4.65
211.89	4.643
212.72	4.626
213.56	4.599
214.4	4.568
215.23	4.531
216.07	4.48
216.91	4.432
217.75	4.371
218.58	4.303
219.42	4.218
220.26	4.103
221.09	4.042
221.93	4.008
222.77	3.981
223.6	3.97
224.44	3.957
225.28	3.947
226.12	3.943
226.95	3.947
227.79	3.957
228.63	3.96
229.46	3.964
230.3	3.974
231.14	3.981
231.98	3.991
232.81	3.994
233.65	4.001
234.49	4.004
235.32	4.008
236.16	4.008
237	4.008
237.83	4.008
238.67	4.001
239.51	3.994
240.35	3.987
241.18	3.974
242.02	3.96
242.86	3.943
243.69	3.923
244.53	3.896
245.37	3.862
246.21	3.828
247.04	3.79
247.88	3.746
248.72	3.698
249.55	3.644
250.39	3.58
251.23	3.508
251.9	3.456
252.79	3.378
253.74	3.294
254.58	3.219
255.41	3.155
256.25	3.1
257.09	3.046
257.92	3.002
258.76	2.961
259.6	2.927
260.44	2.896
261.27	2.876
262.11	2.859
262.95	2.845
263.78	2.839
264.62	2.828
265.46	2.828
266.34	2.834
267.59	2.847
268.53	2.863
269.48	2.881
270.58	2.908
271.32	2.927
272.15	2.954
272.99	2.985
273.82	3.011
274.67	3.039
275.5	3.07
276.34	3.1
277.18	3.124
278.01	3.155
278.85	3.179
279.69	3.209
280.52	3.236
281.36	3.26
282.2	3.291
283.04	3.311
283.87	3.342
284.71	3.362
285.55	3.393
286.38	3.413
287.22	3.44
288.06	3.461
288.9	3.484
289.73	3.508
290.57	3.525
291.41	3.539
292.24	3.546
293.08	3.563
293.92	3.569
294.75	3.576
295.59	3.58
296.43	3.583
297.27	3.586
298.1	3.583
298.94	3.58
299.78	3.58
300.61	3.576
301.45	3.566
302.29	3.559
303.12	3.546
303.96	3.529
304.8	3.512
305.64	3.495
306.47	3.464
307.31	3.44
308.15	3.403
308.98	3.362
309.82	3.321
310.66	3.274
311.5	3.219
312.33	3.158
313.17	3.077
314.01	2.988
314.84	2.886
315.68	2.795
316.52	2.693
317.4	2.601
318.41	2.478
319.27	2.378
320.07	2.289
320.98	2.182
321.68	2.085
322.38	1.996
323.21	1.867
324.05	1.731
324.89	1.605
325.73	1.459
