Uv/Vis Spectrum: 1-(5-pyrimidinyl)-ethanone
Formula: C6H6N2O
CAS: 10325-70-9
Melting point: 87-88
Instrument: Specord UV-Vis
Origin: INSTITUTE OF ENERGY PROBLEMS OF CHEMICAL PHYSICS, RAS
Wavelength (nm)	Logarithm epsilon
209.76	3.943
209.896	3.944
210.696	3.952
211.496	3.962
212.296	3.973
213.096	3.984
213.896	3.996
214.696	4.008
215.496	4.019
216.296	4.029
217.096	4.039
217.896	4.048
218.696	4.056
219.496	4.065
220.296	4.072
221.096	4.079
221.896	4.086
222.696	4.092
223.496	4.096
224.296	4.099
225.096	4.099
225.896	4.096
226.696	4.087
227.531	4.077
228.401	4.064
229.201	4.046
230.001	4.026
230.801	4.002
231.601	3.976
232.401	3.948
233.201	3.919
234.001	3.888
234.801	3.856
235.601	3.824
236.401	3.791
237.201	3.758
238.001	3.725
238.801	3.693
239.601	3.661
240.401	3.63
241.201	3.599
242.001	3.569
242.801	3.54
243.601	3.512
244.401	3.486
245.201	3.459
246.001	3.434
246.801	3.41
247.601	3.386
248.401	3.363
249.201	3.341
250.001	3.318
250.801	3.296
251.601	3.274
252.317	3.251
253.117	3.232
253.917	3.215
254.717	3.2
255.517	3.187
256.317	3.176
257.117	3.166
257.917	3.156
258.717	3.144
259.517	3.13
260.317	3.111
261.117	3.084
261.917	3.048
262.613	3.009
263.413	2.955
264.213	2.91
265.013	2.872
265.813	2.84
266.613	2.813
267.413	2.791
268.213	2.774
269.013	2.76
269.813	2.749
270.613	2.741
271.413	2.735
272.213	2.73
273.013	2.727
273.813	2.725
274.613	2.723
275.413	2.723
276.213	2.722
277.013	2.722
277.813	2.722
278.613	2.722
279.413	2.722
280.322	2.721
281.122	2.722
281.922	2.723
282.722	2.724
283.522	2.725
284.322	2.725
285.122	2.726
285.922	2.726
286.722	2.726
287.522	2.726
288.322	2.726
289.122	2.726
289.922	2.725
290.722	2.725
291.522	2.725
292.322	2.724
293.122	2.723
293.922	2.722
294.722	2.721
295.522	2.719
296.322	2.718
297.122	2.716
297.922	2.713
298.722	2.711
299.522	2.708
300.322	2.704
301.122	2.701
301.922	2.696
302.722	2.691
303.522	2.686
304.322	2.679
305.122	2.673
305.922	2.665
306.722	2.656
307.522	2.647
308.322	2.636
309.122	2.625
309.922	2.612
310.722	2.598
311.522	2.583
312.322	2.566
