Uv/Vis Spectrum: Thiourea, phenyl-
Formula: C7H8N2S
CAS: 103-85-5
Melting point: 154
Instrument: Unicam SP 600
Origin: INSTITUTE OF ENERGY PROBLEMS OF CHEMICAL PHYSICS, RAS
Wavelength (nm)	Logarithm epsilon
231.57	3.962
232.93	3.956
234.59	3.948
235.94	3.945
237.3	3.945
238.66	3.945
240.62	3.948
241.98	3.956
243.33	3.956
244.69	3.959
246.05	3.956
247.56	3.959
249.82	3.967
251.18	3.975
252.23	3.991
253.59	3.996
255.4	4.009
256.61	4.021
257.81	4.038
258.72	4.051
260.08	4.067
260.98	4.08
262.19	4.094
263.24	4.106
264.6	4.12
265.81	4.126
268.07	4.137
269.43	4.137
271.69	4.135
272.9	4.128
274.25	4.118
275.31	4.106
276.82	4.086
277.72	4.073
278.78	4.054
279.68	4.038
280.59	4.016
281.34	3.996
282.1	3.975
283.15	3.948
284.06	3.93
284.81	3.906
285.72	3.883
286.47	3.852
287.53	3.83
288.58	3.795
289.49	3.766
290.54	3.73
291.45	3.696
292.5	3.653
293.41	3.617
294.77	3.559
295.67	3.514
296.73	3.448
297.93	3.4
298.99	3.335
299.89	3.258
301.1	3.199
