Uv/Vis Spectrum: Benzene, isothiocyanato-
Formula: C7H5NS
CAS: 103-72-0
Boiling point: 95/ 12 mm
Instrument: SF-4
Origin: INSTITUTE OF ENERGY PROBLEMS OF CHEMICAL PHYSICS, RAS
Wavelength (nm)	Logarithm epsilon
215.61	4.459
216.8	4.479
218.32	4.486
219.85	4.493
221.38	4.483
222.74	4.466
223.58	4.442
224.43	4.418
225.11	4.391
225.79	4.364
226.13	4.334
226.64	4.307
227.15	4.276
227.66	4.246
228	4.215
228.34	4.185
228.84	4.155
229.18	4.124
229.52	4.094
229.69	4.063
230.03	4.033
230.37	4.002
230.71	3.972
230.88	3.942
231.22	3.911
231.56	3.881
231.73	3.85
231.9	3.82
232.24	3.789
232.41	3.759
232.75	3.729
232.92	3.698
233.09	3.668
233.43	3.637
233.93	3.607
234.44	3.576
235.12	3.549
236.65	3.539
238.01	3.556
239.19	3.576
240.04	3.6
241.06	3.624
242.08	3.647
242.76	3.674
243.78	3.698
244.62	3.725
245.64	3.749
246.66	3.773
247.68	3.796
248.7	3.82
249.71	3.844
250.56	3.867
251.58	3.887
252.6	3.911
253.62	3.931
254.8	3.952
256.33	3.962
257.86	3.969
259.39	3.972
260.74	3.989
261.93	4.009
263.12	4.026
264.31	4.043
265.66	4.057
267.19	4.063
268.72	4.063
270.24	4.06
271.77	4.053
273.3	4.043
274.83	4.043
276.18	4.057
277.71	4.06
279.24	4.05
280.59	4.036
281.61	4.013
282.63	3.989
283.31	3.962
284.16	3.935
284.67	3.904
285.18	3.877
285.68	3.85
286.19	3.82
286.53	3.789
287.04	3.762
287.38	3.732
287.89	3.705
288.23	3.674
288.57	3.644
288.91	3.614
289.42	3.587
289.76	3.556
290.1	3.526
290.6	3.499
290.94	3.468
291.28	3.438
291.62	3.407
292.13	3.38
292.64	3.35
293.15	3.323
293.66	3.292
294.17	3.265
294.68	3.238
295.19	3.211
295.7	3.184
296.37	3.157
296.88	3.127
297.56	3.1
298.24	3.073
298.75	3.046
299.6	3.018
300.28	2.991
301.12	2.968
301.63	2.941
302.48	2.914
302.99	2.887
303.5	2.86
304.35	2.832
304.86	2.802
305.37	2.772
305.88	2.745
306.38	2.717
306.89	2.687
307.23	2.657
307.74	2.63
308.42	2.603
308.93	2.575
309.44	2.548
309.95	2.521
310.46	2.494
311.3	2.467
311.81	2.44
312.66	2.417
313.34	2.389
314.02	2.362
314.87	2.339
315.38	2.312
316.23	2.288
316.9	2.261
317.58	2.234
318.43	2.207
318.94	2.18
319.79	2.156
320.47	2.129
321.15	2.102
321.99	2.075
322.5	2.048
323.18	2.021
323.86	1.994
324.71	1.967
325.39	1.94
326.24	1.913
326.91	1.886
327.76	1.859
328.44	1.832
328.95	1.804
329.8	1.777
330.31	1.75
331.16	1.727
331.67	1.7
332.17	1.673
332.85	1.646
333.36	1.615
333.87	1.588
334.72	1.561
335.23	1.534
335.74	1.507
336.59	1.48
337.1	1.453
337.77	1.426
338.45	1.399
339.13	1.372
339.81	1.345
340.49	1.318
341.17	1.291
341.85	1.263
342.69	1.236
343.37	1.209
344.05	1.182
344.9	1.155
345.41	1.128
346.09	1.101
346.94	1.074
347.61	1.047
348.29	1.02
349.31	0.996
