Uv/Vis Spectrum: Benzene, propyl-
Formula: C9H12
CAS: 103-65-1
Boiling point: 159.2
Instrument: unknown
Origin: INSTITUTE OF ENERGY PROBLEMS OF CHEMICAL PHYSICS, RAS
Wavelength (nm)	Logarithm epsilon
224.01	1.866
224.18	1.846
224.3	1.824
224.47	1.801
224.6	1.777
224.77	1.752
224.94	1.725
225.11	1.696
225.27	1.665
225.44	1.632
225.61	1.596
225.86	1.562
226.08	1.52
226.33	1.485
226.58	1.447
226.84	1.406
227.13	1.36
227.47	1.318
227.81	1.271
228.19	1.24
228.57	1.218
228.95	1.195
229.32	1.183
229.7	1.183
230.11	1.191
230.46	1.207
230.84	1.227
231.22	1.251
231.57	1.266
231.94	1.29
232.32	1.309
232.66	1.335
233.04	1.352
233.42	1.376
233.78	1.392
234.14	1.413
234.51	1.427
234.87	1.448
235.23	1.467
235.57	1.485
235.95	1.503
236.33	1.52
236.69	1.537
237.05	1.552
237.38	1.572
237.72	1.592
238.06	1.61
238.44	1.624
238.73	1.645
239.07	1.661
239.41	1.681
239.79	1.692
240.08	1.714
240.38	1.732
240.72	1.749
240.97	1.768
241.27	1.783
241.56	1.798
241.86	1.816
242.15	1.832
242.45	1.848
242.78	1.859
243.12	1.866
243.46	1.874
243.84	1.879
244.18	1.891
244.51	1.902
244.85	1.914
245.11	1.927
245.4	1.94
245.65	1.952
245.91	1.965
246.16	1.976
246.37	1.99
246.62	2.003
246.84	2.016
247.09	2.026
247.3	2.038
247.51	2.05
247.76	2.06
248.02	2.069
248.35	2.075
248.73	2.077
249.11	2.077
249.49	2.078
249.87	2.078
250.21	2.083
250.55	2.091
250.8	2.101
251.01	2.113
251.22	2.124
251.43	2.133
251.6	2.144
251.77	2.155
251.94	2.165
252.15	2.175
252.32	2.185
252.49	2.194
252.66	2.203
252.87	2.213
253.08	2.22
253.33	2.227
253.67	2.232
254.05	2.234
254.43	2.232
254.77	2.229
255.06	2.224
255.36	2.217
255.65	2.211
255.95	2.205
256.29	2.2
256.67	2.202
256.88	2.211
257.05	2.22
257.17	2.23
257.34	2.239
257.47	2.248
257.64	2.257
257.76	2.265
257.89	2.273
258.1	2.281
258.27	2.288
258.57	2.297
258.61	2.298
258.65	2.299
258.69	2.299
258.73	2.3
258.78	2.3
258.82	2.301
258.86	2.302
258.9	2.303
259.07	2.307
259.24	2.31
259.41	2.31
259.58	2.307
259.75	2.303
259.92	2.302
260.08	2.299
260.25	2.3
260.42	2.302
260.59	2.303
260.76	2.304
260.93	2.306
261.1	2.308
261.27	2.311
261.43	2.312
261.6	2.312
261.77	2.308
261.94	2.299
262.11	2.291
262.26	2.281
262.45	2.266
262.62	2.247
262.78	2.227
262.95	2.21
263.12	2.199
263.29	2.188
263.46	2.182
263.63	2.178
263.8	2.177
263.97	2.178
264.14	2.182
264.3	2.185
264.47	2.188
264.64	2.191
264.81	2.191
264.98	2.189
265.15	2.185
265.32	2.176
265.49	2.162
265.65	2.148
265.82	2.131
265.99	2.115
266.16	2.097
266.33	2.082
266.5	2.074
266.67	2.071
266.84	2.074
267	2.089
267.17	2.104
267.34	2.122
267.51	2.137
267.68	2.157
267.85	2.172
268.02	2.188
268.19	2.198
268.35	2.201
268.52	2.198
268.69	2.183
268.86	2.149
269.03	2.12
269.2	2.083
269.37	2.053
269.54	2.012
269.7	1.984
269.87	1.944
270.04	1.902
270.21	1.869
270.38	1.818
270.55	1.771
270.72	1.732
270.89	1.681
271.05	1.632
271.22	1.582
271.39	1.536
271.56	1.503
271.73	1.454
271.9	1.413
272.07	1.376
272.24	1.335
272.41	1.299
272.57	1.261
272.74	1.24
272.91	1.195
273.08	1.171
273.25	1.132
273.38	1.113
273.59	1.089
