Uv/Vis Spectrum: Acetamide, N-(4-methylphenyl)-
Formula: C9H11NO
CAS: 103-89-9
Melting point: 144-145
Instrument: Spektromom 201
Origin: INSTITUTE OF ENERGY PROBLEMS OF CHEMICAL PHYSICS, RAS
Wavelength (nm)	Logarithm epsilon
202.74	4.395
204.28	4.391
205.48	4.374
206.34	4.351
206.85	4.323
207.37	4.293
207.88	4.262
208.4	4.232
208.91	4.201
209.25	4.17
209.77	4.14
210.11	4.109
210.62	4.082
210.97	4.051
211.48	4.024
212	3.994
212.34	3.963
212.85	3.936
213.2	3.905
213.71	3.875
214.05	3.844
214.39	3.813
214.74	3.783
215.08	3.752
215.42	3.722
215.77	3.691
216.11	3.661
216.28	3.63
216.62	3.599
217.48	3.576
219.02	3.582
220.05	3.606
221.08	3.63
221.93	3.657
222.79	3.684
223.65	3.712
224.16	3.739
225.02	3.762
225.88	3.79
226.9	3.813
227.59	3.841
228.62	3.864
229.48	3.892
230.33	3.919
231.19	3.943
232.05	3.966
233.07	3.99
234.1	4.014
234.96	4.038
235.99	4.058
237.02	4.082
238.04	4.102
239.24	4.123
240.44	4.14
241.81	4.157
243.18	4.167
244.56	4.177
246.1	4.181
247.64	4.177
249.18	4.167
250.55	4.153
251.92	4.136
253.3	4.119
254.49	4.099
255.52	4.079
256.55	4.055
257.58	4.031
258.44	4.007
259.29	3.983
259.81	3.956
260.66	3.929
261.35	3.902
262.03	3.875
262.55	3.847
263.06	3.82
263.41	3.79
264.09	3.762
264.61	3.735
265.12	3.708
265.63	3.681
266.32	3.654
266.83	3.627
267.35	3.599
267.86	3.572
268.38	3.545
268.89	3.518
269.23	3.487
269.57	3.457
270.09	3.429
270.6	3.402
271.12	3.372
271.63	3.344
272.15	3.317
272.83	3.29
273.52	3.263
274.37	3.236
275.23	3.212
276.09	3.185
276.94	3.161
277.8	3.137
278.66	3.113
279.34	3.086
280.2	3.062
281.23	3.038
282.08	3.011
282.6	2.984
283.28	2.957
283.8	2.93
284.31	2.902
285.17	2.875
285.68	2.848
286.54	2.821
287.23	2.794
287.74	2.766
288.25	2.739
288.77	2.712
289.45	2.685
289.8	2.654
291.17	2.454
292.02	2.392
292.88	2.236
293.74	2.11
294.59	1.957
295.45	1.828
296.31	1.644
297.16	1.502
298.02	1.362
298.88	1.27
299.74	1.196
300.59	1.128
301.45	1.06
302.31	1.005
303.16	0.961
304.02	0.914
304.88	0.876
