Uv/Vis Spectrum: Benzeneacetic acid
Formula: C8H8O2
CAS: 103-82-2
Melting point: 75.5-76.5
Instrument: Beckman DK-2a
Origin: INSTITUTE OF ENERGY PROBLEMS OF CHEMICAL PHYSICS, RAS
Wavelength (nm)	Logarithm epsilon
233.97	2.354
234.03	2.353
234.1	2.35
234.22	2.332
234.34	2.316
234.47	2.301
234.59	2.29
234.72	2.28
234.84	2.272
234.96	2.266
235.09	2.26
235.21	2.25
235.34	2.243
235.46	2.234
235.59	2.225
235.71	2.216
235.83	2.207
235.96	2.201
236.08	2.192
236.21	2.184
236.33	2.181
236.45	2.174
236.58	2.167
236.7	2.16
236.83	2.155
236.95	2.148
237.07	2.142
237.2	2.136
237.45	2.13
237.57	2.126
237.7	2.122
237.82	2.117
237.94	2.112
238.07	2.107
238.19	2.103
238.32	2.1
238.44	2.095
238.56	2.092
238.69	2.088
238.81	2.084
238.94	2.082
239.06	2.079
239.18	2.076
239.31	2.072
239.43	2.069
239.56	2.065
239.68	2.061
239.8	2.058
239.93	2.056
240.05	2.054
240.18	2.05
240.3	2.048
240.43	2.044
240.55	2.041
240.67	2.038
240.8	2.036
240.92	2.032
241.05	2.028
241.17	2.026
241.29	2.023
241.42	2.019
241.54	2.018
241.67	2.014
241.79	2.013
241.91	2.01
242.04	2.006
242.16	2.002
242.29	2.001
242.41	1.998
242.54	1.997
242.66	1.996
242.78	1.996
242.91	1.994
243.03	1.993
243.16	1.992
243.28	1.992
243.4	1.993
243.53	1.993
243.65	1.993
243.78	1.994
243.9	1.996
244.02	1.997
244.15	2
244.27	2.001
244.4	2.004
244.52	2.006
244.65	2.009
244.77	2.011
244.89	2.015
245.02	2.019
245.14	2.022
245.27	2.026
245.39	2.029
245.51	2.033
245.64	2.037
245.76	2.039
245.89	2.042
246.01	2.044
246.13	2.045
246.26	2.049
246.38	2.05
246.51	2.051
246.63	2.054
246.76	2.055
246.88	2.056
247	2.056
247.13	2.056
247.25	2.056
247.38	2.056
247.5	2.056
247.62	2.056
247.75	2.056
247.87	2.056
248	2.056
248.12	2.056
248.24	2.056
248.37	2.056
248.49	2.058
248.62	2.057
248.74	2.06
248.87	2.061
248.99	2.064
249.11	2.067
249.24	2.071
249.36	2.077
249.49	2.082
249.61	2.087
249.73	2.091
249.86	2.096
249.98	2.101
250.11	2.104
250.23	2.108
250.35	2.111
250.48	2.116
250.6	2.12
250.73	2.126
250.85	2.13
250.98	2.135
251.1	2.14
251.22	2.147
251.35	2.153
251.47	2.158
251.6	2.161
251.72	2.163
251.84	2.167
251.97	2.168
252.09	2.171
252.22	2.172
252.34	2.173
252.46	2.173
252.59	2.173
252.71	2.172
252.84	2.171
252.96	2.168
253.09	2.166
253.21	2.16
253.33	2.157
253.46	2.152
253.58	2.147
253.71	2.141
253.83	2.135
253.95	2.131
254.08	2.127
254.2	2.126
254.33	2.123
254.45	2.122
254.57	2.122
254.7	2.122
254.82	2.123
254.95	2.126
255.07	2.127
255.2	2.131
255.32	2.135
255.44	2.145
255.57	2.15
255.69	2.161
255.82	2.168
255.94	2.173
256.06	2.179
256.19	2.184
256.31	2.191
256.44	2.197
256.56	2.199
256.68	2.205
256.81	2.215
256.93	2.22
257.06	2.225
257.18	2.231
257.3	2.235
257.43	2.239
257.55	2.244
257.68	2.25
257.8	2.252
257.93	2.252
258.05	2.249
258.17	2.246
258.3	2.24
258.42	2.235
258.55	2.228
258.67	2.222
258.79	2.217
258.92	2.212
259.04	2.205
259.17	2.195
259.29	2.187
259.41	2.18
259.54	2.174
259.66	2.167
259.79	2.159
259.91	2.155
260.04	2.149
260.16	2.145
260.28	2.136
260.41	2.131
260.53	2.127
260.66	2.119
260.78	2.114
260.9	2.107
261.03	2.101
261.15	2.099
261.28	2.095
261.4	2.092
261.52	2.088
261.65	2.086
261.77	2.083
261.9	2.083
262.02	2.083
262.15	2.084
262.27	2.084
262.39	2.086
262.52	2.088
262.64	2.09
262.77	2.092
262.89	2.095
263.01	2.1
263.14	2.105
263.26	2.109
263.39	2.115
263.51	2.12
263.63	2.122
263.76	2.12
263.88	2.117
264.01	2.11
264.13	2.105
264.26	2.096
264.38	2.086
264.5	2.079
264.63	2.071
264.75	2.063
264.88	2.055
265	2.049
265.12	2.039
265.25	2.032
265.37	2.019
265.5	2.008
265.62	1.994
265.74	1.973
265.87	1.966
265.99	1.956
266.12	1.948
266.24	1.935
266.37	1.922
266.49	1.909
266.61	1.897
266.74	1.887
266.86	1.873
266.99	1.86
267.11	1.843
267.23	1.828
267.36	1.813
267.48	1.799
267.61	1.779
267.73	1.768
267.85	1.756
267.98	1.747
268.1	1.73
268.23	1.709
268.35	1.693
268.48	1.677
268.6	1.657
268.72	1.645
268.85	1.639
268.97	1.623
269.1	1.613
269.22	1.603
269.34	1.579
269.47	1.569
269.59	1.558
269.72	1.543
269.84	1.523
269.96	1.49
270.09	1.472
270.21	1.449
270.34	1.434
271.02	1.329
271.27	1.276
271.64	1.223
271.95	1.153
272.26	1.071
272.63	0.983
273.07	0.89
273.5	0.772
274	0.67
274.49	0.575
275.05	0.452
