Uv/Vis Spectrum: Acetamide, N-phenyl-
Formula: C8H9NO
CAS: 103-84-4
Melting point: 115-115.6
Instrument: Unicam SP 500
Origin: INSTITUTE OF ENERGY PROBLEMS OF CHEMICAL PHYSICS, RAS
Wavelength (nm)	Logarithm epsilon
187.79	4.185
187.86	4.185
187.94	4.187
188.02	4.187
188.09	4.187
188.17	4.189
188.24	4.189
188.32	4.189
188.39	4.192
188.47	4.192
188.54	4.192
188.62	4.194
188.7	4.196
189.15	4.211
189.61	4.224
190.07	4.236
190.54	4.247
191	4.26
191.47	4.277
191.94	4.29
192.41	4.303
192.89	4.315
193.37	4.33
193.85	4.343
194.33	4.354
194.81	4.367
195.3	4.377
195.79	4.388
196.28	4.399
196.77	4.409
197.27	4.418
197.77	4.426
198.27	4.435
198.78	4.441
199.28	4.45
199.79	4.454
200.3	4.456
200.82	4.462
201.34	4.462
201.86	4.462
202.38	4.458
202.91	4.452
203.43	4.443
203.96	4.43
204.5	4.409
205.04	4.379
205.57	4.345
206.12	4.309
206.66	4.26
207.21	4.209
207.76	4.166
208.31	4.108
208.87	4.051
209.43	3.985
209.99	3.919
210.56	3.84
211.13	3.763
211.7	3.688
212.28	3.633
212.85	3.579
213.44	3.537
214.02	3.501
214.61	3.475
215.2	3.462
215.79	3.456
216.39	3.456
216.99	3.464
217.6	3.475
218.2	3.492
218.81	3.507
219.43	3.533
220.05	3.56
220.67	3.586
221.29	3.614
221.92	3.639
222.55	3.669
223.19	3.701
223.83	3.729
224.47	3.754
225.12	3.782
225.77	3.81
226.42	3.835
227.08	3.861
227.74	3.887
228.41	3.912
229.08	3.938
229.75	3.961
230.43	3.987
231.11	4.008
231.8	4.032
232.49	4.053
233.18	4.072
233.88	4.091
234.58	4.104
235.29	4.117
236	4.134
236.71	4.145
237.43	4.157
238.15	4.166
238.88	4.175
239.61	4.179
240.35	4.189
241.09	4.192
241.84	4.194
242.59	4.194
243.34	4.192
244.1	4.187
244.87	4.179
245.64	4.168
246.41	4.157
247.19	4.14
247.98	4.125
248.77	4.106
249.56	4.085
250.36	4.064
251.17	4.034
251.98	4.019
252.79	3.974
253.61	3.94
254.44	3.897
255.27	3.85
256.11	3.806
256.95	3.754
257.79	3.695
258.65	3.646
259.51	3.586
260.37	3.524
261.24	3.46
262.12	3.392
263	3.323
263.89	3.262
264.78	3.196
265.68	3.146
266.59	3.104
267.5	3.055
268.42	3.016
269.35	2.986
270.28	2.974
271.22	2.963
272.16	2.954
273.11	2.954
274.07	2.948
275.03	2.935
275.54	2.922
275.87	2.905
276.2	2.889
276.45	2.877
276.69	2.864
276.94	2.851
277.19	2.838
277.4	2.829
277.6	2.819
277.91	2.808
278.11	2.8
278.43	2.788
278.8	2.771
279.13	2.756
279.46	2.741
279.79	2.737
280.13	2.741
280.46	2.756
280.8	2.769
281.14	2.78
281.56	2.785
281.83	2.788
282.16	2.791
282.49	2.79
282.92	2.784
283.28	2.776
283.53	2.766
283.86	2.748
284.21	2.725
284.55	2.696
284.89	2.667
285.24	2.624
285.59	2.566
285.94	2.496
286.29	2.419
286.64	2.336
286.99	2.236
287.34	2.146
287.69	2.074
288.04	2.027
288.4	1.941
288.75	1.867
289.11	1.775
289.47	1.679
289.83	1.591
290.18	1.538
290.54	1.461
290.9	1.372
291.27	1.28
291.63	1.186
291.99	1.109
