Uv/Vis Spectrum: Benzenamine, N-ethyl-
Formula: C8H11N
CAS: 103-69-5
Boiling point: 204.7/ 760 mm
Instrument: Unicam SP 800
Origin: INSTITUTE OF ENERGY PROBLEMS OF CHEMICAL PHYSICS, RAS
Wavelength (nm)	Logarithm epsilon
206.75	3.768
206.91	3.768
207.25	3.755
207.76	3.751
208.26	3.745
208.77	3.731
209.27	3.724
209.78	3.711
210.29	3.69
210.79	3.656
211.3	3.599
211.8	3.534
212.31	3.436
212.82	3.385
213.32	3.209
213.83	3.093
214.33	2.981
214.84	2.869
215.35	2.747
215.85	2.574
216.36	2.459
216.86	2.35
217.37	2.225
217.88	2.123
218.38	2.018
218.89	1.885
219.39	1.773
219.9	1.665
220.4	1.566
220.91	1.468
221.42	1.376
221.92	1.288
222.43	1.18
222.93	1.142
223.44	1.142
223.95	1.153
224.45	1.159
224.96	1.166
225.46	1.166
225.97	1.18
226.48	1.193
226.98	1.21
227.49	1.224
227.99	1.244
228.5	1.261
229	1.278
229.51	1.312
230.02	1.336
230.52	1.37
231.03	1.4
231.53	1.431
232.04	1.454
232.55	1.485
233.05	1.516
233.56	1.539
234.06	1.563
234.57	1.587
235.08	1.607
235.58	1.634
236.09	1.655
236.59	1.675
237.1	1.695
237.6	1.719
238.11	1.739
238.62	1.756
239.12	1.777
239.63	1.797
240.13	1.821
240.64	1.838
241.15	1.855
241.65	1.872
242.16	1.889
242.66	1.906
243.17	1.923
243.68	1.94
244.18	1.953
244.69	1.963
245.19	1.98
245.7	2.004
246.21	2.014
246.71	2.021
247.39	2.024
247.55	2.028
247.72	2.031
247.89	2.035
248.06	2.038
248.23	2.041
248.4	2.045
248.57	2.048
248.73	2.052
248.9	2.055
249.07	2.058
249.41	2.075
249.75	2.096
250.08	2.13
250.42	2.153
250.76	2.16
251.1	2.157
251.43	2.143
251.77	2.13
252.11	2.116
252.44	2.103
252.78	2.096
253.12	2.089
253.46	2.099
253.79	2.106
254.13	2.119
254.47	2.153
254.81	2.194
255.14	2.225
255.48	2.238
255.82	2.245
256.15	2.245
256.49	2.238
256.83	2.214
257.17	2.191
257.5	2.157
257.84	2.136
258.18	2.119
258.52	2.103
258.85	2.089
259.19	2.079
259.53	2.072
259.86	2.069
260.2	2.069
260.54	2.069
260.88	2.072
261.21	2.079
261.55	2.089
261.89	2.106
262.23	2.119
262.56	2.123
262.9	2.082
263.24	2.052
263.57	2.024
263.91	1.984
264.25	1.916
264.59	1.885
264.92	1.868
265.26	1.872
265.6	1.879
265.94	1.892
266.27	1.889
266.61	1.801
266.95	1.682
267.28	1.634
267.62	1.546
267.96	1.471
268.3	1.404
269.65	1.237
269.98	1.18
270.32	1.122
270.66	1.068
270.99	1.013
271.33	0.949
271.67	0.901
272.01	0.854
272.34	0.803
272.68	0.752
273.02	0.701
273.35	0.654
273.69	0.613
274.03	0.552
274.37	0.511
274.7	0.471
275.04	0.43
275.38	0.393
275.72	0.359
276.05	0.325
