Uv/Vis Spectrum: Bibenzyl
Formula: C14H14
CAS: 103-29-7
Melting point: 52
Instrument: Beckman DU
Origin: INSTITUTE OF ENERGY PROBLEMS OF CHEMICAL PHYSICS, RAS
Wavelength (nm)	Logarithm epsilon
210.09	4.097
211.27	4.114
212.61	4.127
214.13	4.131
215.64	4.127
216.82	4.11
217.99	4.09
218.83	4.066
219.84	4.043
220.68	4.019
221.52	3.992
222.03	3.961
222.53	3.934
222.87	3.904
223.21	3.873
223.54	3.843
223.88	3.813
224.22	3.782
224.55	3.752
224.75	3.726
225.06	3.691
225.39	3.66
225.56	3.63
225.89	3.601
226.25	3.572
226.64	3.539
227.15	3.51
227.58	3.481
228.25	3.454
228.92	3.427
229.43	3.4
230.1	3.373
230.77	3.346
231.45	3.319
231.95	3.292
232.79	3.265
233.46	3.237
234.3	3.214
235.15	3.19
236.15	3.166
237	3.139
237.5	3.112
238	3.085
238.51	3.058
239.01	3.028
239.35	2.997
239.69	2.967
240.02	2.936
240.36	2.906
240.56	2.876
240.86	2.845
241.04	2.813
241.26	2.783
241.54	2.754
241.87	2.723
242.21	2.693
242.96	2.664
243.71	2.644
244.73	2.649
245.74	2.669
246.75	2.693
247.59	2.72
248.26	2.747
249.1	2.774
249.94	2.801
250.78	2.828
251.63	2.855
252.47	2.879
253.31	2.906
254.32	2.93
255.16	2.957
256	2.984
257.01	3.007
257.85	3.031
258.69	3.055
259.7	3.078
260.54	3.102
261.55	3.122
262.56	3.146
263.73	3.166
264.91	3.183
266.09	3.2
267.1	3.221
268.27	3.241
269.45	3.258
270.63	3.275
271.97	3.292
273.32	3.309
274.5	3.325
275.67	3.342
276.85	3.359
278.03	3.38
279.2	3.396
280.38	3.413
281.73	3.43
283.07	3.444
284.42	3.454
285.93	3.464
287.44	3.471
288.79	3.481
290.3	3.488
291.65	3.501
293.16	3.505
294.67	3.515
296.19	3.512
297.7	3.508
299.22	3.501
300.56	3.491
302.07	3.484
303.59	3.484
305.1	3.484
306.61	3.484
308.13	3.481
309.47	3.468
310.82	3.451
311.83	3.43
312.84	3.407
313.51	3.38
314.52	3.356
315.53	3.336
316.54	3.315
317.54	3.295
319.06	3.285
320.4	3.271
321.75	3.258
322.76	3.237
323.6	3.21
324.27	3.183
324.94	3.156
325.45	3.129
325.95	3.099
326.39	3.074
326.79	3.041
327.17	3.01
327.58	2.969
327.91	2.929
328.46	2.852
329.29	2.738
329.99	2.629
330.49	2.554
331.17	2.429
331.84	2.314
332.51	2.199
333.18	2.084
333.86	1.962
334.53	1.83
335.2	1.732
335.87	1.647
336.55	1.57
337.22	1.485
337.89	1.394
338.57	1.333
339.24	1.282
