Uv/Vis Spectrum: Monobenzone
Formula: C13H12O2
CAS: 103-16-2
Melting point: 122
Instrument: SF-4
Origin: INSTITUTE OF ENERGY PROBLEMS OF CHEMICAL PHYSICS, RAS
Wavelength (nm)	Logarithm epsilon
239.97	3.376
240.14	3.364
240.49	3.339
240.83	3.305
241.18	3.266
241.53	3.224
241.86	3.187
242.21	3.146
242.46	3.121
242.9	3.094
243.24	3.077
243.55	3.063
243.95	3.045
244.27	3.032
244.62	3.016
244.88	3.003
245.25	2.985
245.61	2.969
245.94	2.955
246.34	2.938
246.68	2.927
247.03	2.916
247.37	2.905
247.72	2.893
248	2.88
248.41	2.862
248.75	2.849
249.09	2.835
249.44	2.822
249.78	2.81
250.09	2.801
250.47	2.793
250.74	2.787
251.16	2.781
251.5	2.778
251.85	2.775
252.25	2.77
252.54	2.762
252.88	2.753
253.26	2.741
253.57	2.729
253.91	2.719
254.26	2.715
254.6	2.715
254.95	2.715
255.29	2.718
255.64	2.722
255.99	2.728
256.33	2.733
256.66	2.737
257	2.743
257.36	2.746
257.7	2.749
258.05	2.748
258.42	2.744
258.73	2.736
259.07	2.729
259.43	2.722
259.75	2.718
260.08	2.714
260.46	2.712
260.8	2.712
261.15	2.713
261.49	2.715
261.83	2.722
262.18	2.733
262.5	2.743
262.87	2.753
263.21	2.762
263.58	2.772
263.9	2.781
264.28	2.789
264.59	2.796
264.92	2.803
265.28	2.808
265.6	2.812
265.97	2.816
266.28	2.82
266.65	2.825
266.98	2.829
267.34	2.835
267.69	2.842
268.03	2.849
268.32	2.854
268.7	2.863
269.06	2.872
269.41	2.881
269.75	2.891
270.1	2.903
270.44	2.916
270.81	2.928
271.14	2.942
271.47	2.953
271.82	2.961
272.16	2.973
272.51	2.984
272.85	2.996
273.21	3.007
273.54	3.016
273.89	3.026
274.23	3.038
274.57	3.052
274.92	3.061
275.26	3.074
275.61	3.086
275.95	3.097
276.26	3.108
276.64	3.121
276.98	3.134
277.33	3.144
277.67	3.156
278.02	3.167
278.36	3.176
278.71	3.186
279.01	3.196
279.36	3.206
279.74	3.216
280.07	3.227
280.43	3.238
280.77	3.248
281.06	3.257
281.43	3.268
281.76	3.279
282.15	3.29
282.49	3.298
282.79	3.305
283.18	3.31
283.53	3.315
283.87	3.32
284.21	3.328
284.56	3.333
284.9	3.34
285.25	3.348
285.59	3.353
285.89	3.358
286.28	3.363
286.62	3.366
286.97	3.371
287.31	3.376
287.66	3.38
288	3.386
288.35	3.39
288.64	3.394
289.04	3.401
289.38	3.404
289.72	3.408
290.07	3.411
290.41	3.413
290.76	3.414
291.1	3.415
291.45	3.414
291.79	3.412
292.13	3.411
292.48	3.405
292.82	3.401
293.17	3.394
293.51	3.386
293.86	3.377
294.2	3.363
294.54	3.352
294.89	3.34
295.23	3.328
295.58	3.312
295.92	3.287
296.27	3.264
296.61	3.237
296.87	3.212
297.3	3.176
297.64	3.148
297.9	3.116
298.33	3.071
298.61	3.034
299.02	2.99
299.36	2.963
299.69	2.94
300.05	2.923
300.33	2.905
300.74	2.874
301.09	2.835
301.43	2.81
301.77	2.784
302.12	2.765
302.5	2.749
302.89	2.729
303.31	2.714
303.73	2.696
304.18	2.674
304.7	2.642
305.22	2.602
305.62	2.566
306.25	2.516
306.94	2.468
307.63	2.415
308.49	2.354
309.26	2.297
310.21	2.221
311.07	2.136
312.28	2.046
313.65	1.954
315.05	1.886
316.58	1.809
318.13	1.714
