Uv/Vis Spectrum: trans-Stilbene
Formula: C14H12
CAS: 103-30-0
Melting point: 123
Boiling point: 307; 166(12)
Instrument: Beckman DU
Origin: INSTITUTE OF ENERGY PROBLEMS OF CHEMICAL PHYSICS, RAS
Wavelength (nm)	Logarithm epsilon
230	4.13001
231	4.11
232	4.09
233	4.07
234	4.04
235	4.02
236	3.99
237	3.96
238	3.93
239	3.9
240	3.86
241	3.82
242	3.77
243	3.72
244	3.66
245	3.6
246	3.5
247	3.39
248	3.28
249	3.17
250	3.12001
251	3.12
252	3.14
253	3.19
254	3.31
255	3.41
256	3.49
257	3.56
258	3.62
259	3.68
260	3.73
261	3.77
262	3.82
263	3.85
264	3.89
265	3.92
266	3.95
267	3.98
268	4.01
269	4.04
270	4.07
271	4.09
272	4.11
273	4.13
274	4.16
275	4.18
276	4.2
277	4.21
278	4.23
279	4.25
280	4.27
281	4.28
282	4.3
283	4.31
284	4.32
285	4.34
286	4.35
287	4.36
288	4.37
289	4.38
290	4.39
291	4.41
292	4.41
293	4.42
294	4.43
295	4.43
296	4.43
297	4.43
298	4.43
299	4.42
300	4.41
301	4.4
302	4.39
303	4.38
304	4.37
305	4.35
306	4.34
307	4.33
308	4.31
309	4.3
310	4.28001
311	4.26
312	4.24
313	4.22
314	4.2
315	4.17
316	4.15
317	4.12
318	4.09
319	4.06
