Uv/Vis Spectrum: DL-Camphorquinone
Formula: C10H14O2
CAS: 10373-78-1
Melting point: 199
Instrument: Optica CF 4
Origin: INSTITUTE OF ENERGY PROBLEMS OF CHEMICAL PHYSICS, RAS
Wavelength (nm)	Logarithm epsilon
248.62	1.394
248.75	1.394
248.89	1.392
249.02	1.389
249.15	1.389
249.29	1.387
249.42	1.387
249.56	1.385
249.69	1.383
249.82	1.383
249.96	1.381
250.09	1.379
250.23	1.379
250.36	1.377
250.5	1.377
250.63	1.374
250.77	1.372
250.9	1.372
251.04	1.37
251.18	1.368
251.31	1.368
251.45	1.366
251.58	1.366
251.72	1.364
251.86	1.362
251.99	1.362
252.13	1.359
252.27	1.357
252.4	1.357
252.54	1.355
252.68	1.355
253.2	1.347
254.06	1.338
254.76	1.329
255.47	1.322
256.2	1.315
256.87	1.308
257.61	1.3
258.26	1.293
259.02	1.287
259.73	1.28
260.47	1.274
261.2	1.267
261.94	1.26
262.68	1.252
263.44	1.244
264.17	1.235
264.91	1.227
265.68	1.22
266.44	1.212
267.12	1.205
267.82	1.201
268.76	1.199
269.54	1.197
270.27	1.194
271.11	1.19
271.9	1.186
272.7	1.179
273.5	1.175
274.31	1.171
275.09	1.171
275.98	1.175
276.76	1.179
277.59	1.188
278.42	1.199
279.26	1.209
280.1	1.22
280.94	1.231
281.8	1.242
282.66	1.248
283.52	1.25
284.38	1.25
285.26	1.248
286.16	1.251
287.02	1.257
287.91	1.263
288.8	1.269
289.25	1.271
289.7	1.269
290.61	1.261
291.52	1.25
292.38	1.241
293.36	1.237
294.29	1.237
295.23	1.239
296.17	1.244
297.11	1.248
298.05	1.25
299.07	1.25
299.99	1.246
300.96	1.237
301.94	1.227
302.93	1.214
303.92	1.199
304.91	1.186
305.92	1.173
306.93	1.162
307.95	1.152
308.97	1.145
310	1.141
311.04	1.141
312.07	1.14
313.11	1.134
314.19	1.109
315.26	1.077
316.33	1.042
317.41	1.004
318.5	0.98
319.6	0.965
320.7	0.961
321.81	0.954
322.93	0.95
324.05	0.933
325.19	0.899
326.33	0.858
327.48	0.809
328.64	0.768
329.81	0.71
330.98	0.67
332.16	0.627
333.36	0.616
334.56	0.575
335.76	0.535
336.98	0.485
338.21	0.44
339.44	0.404
340.69	0.363
341.94	0.316
343.21	0.282
344.48	0.243
345.76	0.211
347.05	0.181
348.35	0.155
349.66	0.121
350.98	0.097
352.31	0.074
353.65	0.061
355.01	0.044
356.37	0.042
357.74	0.044
359.12	0.055
360.52	0.074
361.92	0.095
363.3	0.119
364.76	0.145
366.2	0.172
367.65	0.198
368.82	0.219
370.08	0.244
372.05	0.277
373.56	0.301
375.07	0.327
376.59	0.355
378.12	0.387
379.66	0.419
381.22	0.455
382.79	0.487
384.38	0.517
385.97	0.55
387.58	0.582
389.21	0.612
390.84	0.646
392.49	0.682
394.16	0.717
395.84	0.74
397.53	0.779
399.24	0.811
400.96	0.837
402.7	0.875
404.45	0.905
406.22	0.931
408	0.959
409.8	0.987
411.62	1.006
413.45	1.036
415.3	1.059
417.16	1.079
419.04	1.102
420.94	1.119
422.86	1.141
424.79	1.16
426.74	1.175
428.71	1.194
430.7	1.209
432.7	1.224
434.73	1.237
436.77	1.248
438.83	1.261
440.92	1.272
443.02	1.284
445.14	1.293
447.28	1.302
449.45	1.31
451.63	1.321
453.84	1.329
456.07	1.336
458.31	1.342
460.59	1.344
462.88	1.351
465.2	1.357
467.54	1.374
469.9	1.387
472.29	1.398
474.7	1.407
477.14	1.409
479.6	1.413
482.09	1.417
484.61	1.419
487.15	1.426
489.71	1.43
492.31	1.428
493.52	1.425
494.49	1.418
495.23	1.411
496.12	1.4
496.86	1.389
497.58	1.374
498.27	1.359
499.09	1.339
499.76	1.318
500.26	1.297
500.81	1.259
501.41	1.211
502.07	1.131
502.72	1.052
503.52	0.964
504.11	0.893
504.64	0.827
505.3	0.747
505.89	0.677
506.55	0.602
507.21	0.518
507.6	0.469
508.06	0.412
508.66	0.341
509.25	0.262
510.17	0.138
510.97	0.041
511.69	-0.047
512.22	-0.118
513.07	-0.22
513.8	-0.308
514.26	-0.37
514.79	-0.445
515.32	-0.507
515.81	-0.554
