Uv/Vis Spectrum: p-Anisidine
Formula: C7H9NO
CAS: 104-94-9
Melting point: 57.2
Boiling point: 243
Instrument: n.i.g.
Origin: INSTITUTE OF ENERGY PROBLEMS OF CHEMICAL PHYSICS, RAS
Wavelength (nm)	Logarithm epsilon
342.442	1.03047
341.902	1.0837
341.637	1.11462
341.419	1.14976
340.24	1.24489
339.89	1.2868
339.699	1.30429
339.506	1.31234
338.573	1.40962
338.551	1.42393
338.53	1.43847
338.508	1.45313
338.508	1.45313
338.376	1.45482
338.226	1.45674
338.068	1.45878
338.068	1.45878
337.898	1.47581
337.786	1.48271
337.638	1.48541
337.524	1.56141
337.008	1.60934
336.769	1.62763
336.603	1.63196
336.249	1.7404
336.249	1.7404
336.189	1.7294
336.138	1.71851
336.127	1.74301
336.103	1.70785
335.998	1.74574
335.85	1.74869
335.85	1.74869
335.633	1.76385
335.408	1.77914
335.166	1.79465
334.226	1.88668
334.039	1.91786
333.917	1.93332
333.757	1.94633
333.701	1.9846
333.696	1.98789
333.691	1.99143
333.686	1.99508
333.22	2.02746
332.945	2.04646
332.575	2.06764
332.137	2.09533
332.137	2.09533
331.972	2.13044
331.798	2.16566
331.608	2.20111
331.608	2.20111
331.413	2.20472
331.21	2.20834
330.991	2.21195
330.991	2.21195
330.719	2.23706
330.431	2.26229
330.134	2.28774
329.253	2.35776
328.968	2.37567
328.684	2.3938
328.399	2.41206
327.34	2.48517
327.225	2.48776
327.102	2.49034
326.962	2.49293
326.962	2.49293
326.758	2.50718
326.546	2.52167
326.317	2.53626
325.449	2.61205
325.251	2.62368
325.054	2.63555
324.857	2.64753
324.857	2.64753
324.669	2.65183
324.473	2.65636
324.261	2.661
322.886	2.72299
322.596	2.73586
322.336	2.7506
321.884	2.77985
319.956	2.84955
319.838	2.85124
319.705	2.85316
319.563	2.8552
319.563	2.8552
319.401	2.86554
319.163	2.87458
318.646	2.89006
318.646	2.89006
318.575	2.89072
318.504	2.89161
318.434	2.89262
315.32	2.95983
315.216	2.96048
315.104	2.96136
314.977	2.96235
314.977	2.96235
314.684	2.97586
314.49	2.98286
314.23	2.98939
314.23	2.98939
314.127	2.99003
314.016	2.99091
313.889	2.9919
313.889	2.9919
313.816	2.99623
313.743	3.00079
313.67	3.00547
313.67	3.00547
313.16	3.015
312.972	3.01916
312.943	3.0215
310.138	3.05837
309.285	3.06462
308.267	3.07362
307.403	3.07951
303.251	3.10804
302.733	3.11177
302.218	3.11445
301.268	3.11838
301.268	3.11838
300.049	3.12059
298.826	3.1228
297.607	3.125
295.703	3.12958
294.818	3.12824
293.951	3.12702
293.096	3.12604
293.096	3.12604
292.748	3.12226
292.4	3.1186
292.053	3.11518
292.053	3.11518
291.646	3.11398
291.24	3.11279
290.847	3.10111
290.843	3.10441
290.839	3.10794
290.836	3.11159
290.836	3.11159
289.368	3.08379
289.168	3.08269
288.969	3.0817
288.77	3.08095
288.77	3.08095
288.472	3.07455
288.187	3.06815
287.908	3.06175
287.908	3.06175
287.655	3.06063
287.409	3.05963
287.175	3.05886
285.613	3.02262
285.423	3.01798
285.233	3.01358
285.042	3.00929
284.197	2.99534
283.952	2.99317
283.713	2.99112
283.486	2.9893
283.486	2.9893
283.165	2.98094
282.845	2.97282
282.525	2.96481
280.055	2.89044
279.475	2.87652
279.199	2.86867
278.989	2.86014
276.874	2.78064
276.874	2.78064
276.871	2.78394
276.867	2.78747
276.864	2.79112
276.39	2.76681
275.908	2.75298
275.427	2.73916
275.427	2.73916
275.248	2.73714
275.068	2.73536
274.888	2.73369
274.505	2.70365
274.501	2.70695
274.498	2.71048
274.494	2.71413
273.74	2.6703
273.636	2.66403
273.47	2.65702
273.101	2.6433
273.101	2.6433
273.056	2.63767
273.017	2.63227
272.989	2.62699
272.989	2.62699
272.814	2.62325
272.639	2.61951
272.465	2.61577
272.465	2.61577
272.419	2.61208
272.378	2.60839
272.349	2.60471
272.349	2.60471
272.256	2.60364
272.174	2.60269
272.098	2.60198
270.956	2.55536
270.672	2.5371
270.45	2.52505
270.098	2.50886
269.733	2.47305
269.728	2.47844
269.723	2.48407
269.717	2.48982
269.46	2.47293
269.303	2.47286
269.136	2.47279
268.964	2.47272
268.223	2.44566
267.661	2.43563
267.336	2.4306
266.967	2.42625
266.702	2.42299
266.531	2.42291
266.361	2.42284
266.191	2.42277
262.935	2.44599
262.563	2.45796
262.238	2.46692
261.679	2.48056
261.679	2.48056
261.555	2.48853
261.43	2.49673
261.306	2.50504
261.306	2.50504
261.234	2.50569
261.157	2.50657
261.07	2.50756
261.07	2.50756
260.855	2.53704
260.714	2.55315
260.526	2.56971
260.526	2.56971
260.332	2.57603
260.2	2.58168
260.019	2.59151
260.019	2.59151
259.831	2.6144
259.727	2.62346
259.619	2.62646
258.974	2.70482
258.823	2.74529
258.667	2.78598
258.501	2.82679
258.501	2.82679
258.382	2.83108
258.258	2.83561
258.124	2.84025
258.124	2.84025
257.958	2.86536
257.783	2.89059
257.603	2.91604
257.603	2.91604
257.433	2.92857
257.263	2.94121
257.094	2.95409
257.094	2.95409
256.868	3.00759
256.757	3.02793
256.664	3.03254
256.397	3.08119
256.388	3.09183
256.379	3.1027
256.369	3.11369
256.369	3.11369
256.294	3.11538
256.208	3.1173
256.117	3.11934
255.746	3.16006
255.71	3.16793
255.665	3.17591
255.613	3.18412
255.335	3.22227
255.329	3.22924
255.323	3.23644
255.317	3.24376
254.604	3.27069
254.506	3.28453
254.412	3.2936
254.242	3.30566
254.242	3.30566
254.197	3.30632
254.152	3.30721
254.107	3.30822
253.617	3.34049
253.544	3.3478
253.466	3.35511
253.378	3.3624
252.427	3.3997
252.354	3.4086
252.275	3.41762
252.187	3.42686
251.273	3.4563
251.033	3.4657
250.8	3.47383
250.561	3.48323
250.561	3.48323
250.422	3.48751
250.274	3.49202
250.121	3.49664
250.121	3.49664
250.044	3.50358
249.959	3.51074
249.868	3.51802
248.614	3.56932
248.294	3.58456
247.846	3.60335
247.368	3.62585
245.589	3.6926
245.289	3.70394
244.851	3.71813
244.259	3.73807
242.122	3.80513
241.773	3.81491
241.421	3.82469
241.06	3.83446
238.651	3.89558
238.137	3.90315
237.848	3.90653
237.535	3.90861
235.923	3.935
235.656	3.93485
235.391	3.9347
235.126	3.93456
234.13	3.9555
233.785	3.95737
233.56	3.95942
233.265	3.96341
233.265	3.96341
232.98	3.96393
232.687	3.96467
232.391	3.96553
231.808	3.98146
231.623	3.98203
231.434	3.98284
231.237	3.98375
231.237	3.98375
230.687	3.99903
