Uv/Vis Spectrum: Benzaldehyde, 4-methyl-
Formula: C8H8O
CAS: 104-87-0
Boiling point: 204-205
Instrument: Unicam SP 800A
Origin: INSTITUTE OF ENERGY PROBLEMS OF CHEMICAL PHYSICS, RAS
Wavelength (nm)	Logarithm epsilon
229.94	3.353
230.98	3.376
231.89	3.402
232.66	3.431
233.44	3.458
234.09	3.487
234.48	3.514
235.13	3.539
235.78	3.563
236.43	3.586
236.82	3.611
237.21	3.634
237.86	3.653
238.25	3.672
238.77	3.69
239.16	3.707
239.68	3.724
240.07	3.739
240.46	3.757
240.85	3.773
241.37	3.788
241.76	3.803
242.02	3.818
242.41	3.832
242.8	3.846
243.19	3.86
243.58	3.873
244.1	3.884
244.36	3.897
244.75	3.909
245.01	3.921
245.53	3.931
245.79	3.942
246.18	3.953
246.57	3.963
246.96	3.974
247.21	3.984
247.47	3.994
247.86	4.004
248.25	4.012
248.64	4.021
249.03	4.03
249.42	4.038
249.81	4.047
250.2	4.056
250.46	4.064
250.85	4.071
251.24	4.08
251.5	4.088
251.89	4.095
252.28	4.103
252.54	4.111
252.93	4.118
253.19	4.125
253.58	4.133
253.97	4.139
254.23	4.146
254.62	4.153
255.01	4.16
255.4	4.167
255.66	4.173
256.05	4.179
256.44	4.185
256.83	4.191
257.22	4.198
257.74	4.203
258.13	4.208
258.65	4.214
259.17	4.219
259.82	4.223
260.47	4.228
261.25	4.232
262.28	4.234
263.45	4.234
264.62	4.234
265.4	4.23
265.92	4.225
266.57	4.22
266.96	4.214
267.35	4.209
267.74	4.204
268.13	4.198
268.52	4.192
268.91	4.187
269.3	4.181
269.56	4.175
269.95	4.169
270.34	4.162
270.73	4.156
270.86	4.149
271.25	4.142
271.51	4.135
271.77	4.128
271.9	4.12
272.29	4.114
272.42	4.106
272.81	4.1
273.07	4.092
273.59	4.085
273.98	4.077
274.24	4.069
274.37	4.06
274.63	4.052
275.02	4.043
275.28	4.034
275.67	4.026
276.06	4.017
276.44	4.008
276.57	3.998
276.96	3.99
277.22	3.979
277.61	3.97
277.87	3.96
278.26	3.95
278.65	3.941
279.04	3.929
279.3	3.918
279.82	3.908
280.34	3.897
280.86	3.886
281.25	3.874
281.64	3.863
282.16	3.851
282.55	3.839
283.07	3.826
283.46	3.813
284.11	3.801
284.63	3.788
285.28	3.773
285.8	3.759
286.32	3.743
286.84	3.728
287.49	3.713
287.88	3.696
288.53	3.681
289.18	3.663
289.83	3.646
290.35	3.626
290.87	3.605
291.64	3.586
292.29	3.566
293.07	3.546
293.72	3.524
294.5	3.501
295.28	3.476
296.19	3.454
296.97	3.427
297.75	3.402
298.53	3.376
299.31	3.343
300.22	3.313
301.13	3.28
301.91	3.245
302.69	3.2
303.73	3.165
304.64	3.118
305.67	3.084
306.71	3.048
307.75	3.018
308.79	2.974
309.96	2.951
319.32	2.858
