Uv/Vis Spectrum: N-(4-Nitrophenyl)acetic acid amide
Formula: C8H8N2O3
CAS: 104-04-1
Boiling point: 207
Instrument: SF-16
Origin: INSTITUTE OF ENERGY PROBLEMS OF CHEMICAL PHYSICS, RAS
Wavelength (nm)	Logarithm epsilon
207.01	4.051
208.01	4.017
209.01	3.979
210.01	3.947
211.01	3.926
212.01	3.917
213.01	3.918
214.01	3.926
215.01	3.938
216.344	3.956
217.344	3.975
218.344	3.992
219.344	4.005
220.344	4.016
221.344	4.023
222.344	4.027
223.344	4.029
224.344	4.028
225.344	4.024
226.344	4.017
227.344	4.007
228.344	3.994
229.344	3.977
230.344	3.954
231.013	3.935
232.013	3.901
233.013	3.858
234.013	3.815
235.013	3.772
236.013	3.729
237.013	3.686
238.013	3.643
239.013	3.6
240.013	3.557
241.013	3.514
242.013	3.471
243.013	3.427
244.013	3.384
245.013	3.341
245.682	3.315
246.682	3.268
247.682	3.236
248.682	3.217
249.682	3.207
250.682	3.203
251.682	3.204
252.682	3.207
253.682	3.212
254.682	3.217
255.682	3.223
256.682	3.228
257.682	3.236
258.682	3.245
259.818	3.262
260.818	3.282
261.818	3.302
262.818	3.323
263.818	3.344
264.818	3.365
265.818	3.387
266.818	3.409
267.818	3.432
268.818	3.454
269.818	3.477
270.818	3.499
271.818	3.521
272.818	3.544
273.818	3.566
274.818	3.588
275.818	3.61
276.818	3.631
277.818	3.652
278.818	3.673
279.818	3.693
280.818	3.713
281.818	3.733
282.818	3.752
283.818	3.77
284.818	3.789
285.818	3.806
286.818	3.823
287.818	3.84
288.818	3.856
289.818	3.871
290.818	3.886
291.818	3.9
292.818	3.914
293.818	3.928
294.818	3.94
295.818	3.953
296.818	3.965
297.818	3.976
298.818	3.987
299.818	3.998
299.824	3.998
300.824	4.008
301.824	4.018
302.824	4.028
303.824	4.037
304.824	4.047
305.824	4.056
306.824	4.065
307.824	4.074
308.824	4.082
309.824	4.09
310.824	4.098
311.824	4.105
312.824	4.111
313.824	4.117
314.824	4.122
315.824	4.127
316.824	4.131
317.824	4.134
318.824	4.136
319.824	4.137
320.824	4.138
321.824	4.137
322.824	4.136
323.824	4.134
324.824	4.13
325.824	4.126
326.824	4.121
327.824	4.115
328.824	4.108
329.824	4.1
330.824	4.091
331.824	4.081
332.824	4.07
333.824	4.058
334.824	4.046
335.824	4.033
336.824	4.019
337.824	4.004
338.824	3.989
339.824	3.973
340.824	3.957
341.824	3.94
342.824	3.923
343.824	3.905
344.824	3.887
345.824	3.869
346.824	3.851
347.824	3.832
348.824	3.814
349.824	3.795
350.824	3.777
351.824	3.758
352.824	3.74
353.824	3.721
354.824	3.703
355.824	3.685
356.824	3.667
357.824	3.649
358.824	3.631
359.824	3.613
360.824	3.595
361.824	3.577
362.824	3.559
363.824	3.54
364.824	3.521
365.824	3.501
366.824	3.481
367.824	3.459
368.824	3.436
369.824	3.412
370.824	3.385
371.824	3.357
372.824	3.326
373.824	3.292
