Uv/Vis Spectrum: Benzene, butyl-
Formula: C10H14
CAS: 104-51-8
Boiling point: 183.3
Instrument: unknown
Origin: INSTITUTE OF ENERGY PROBLEMS OF CHEMICAL PHYSICS, RAS
Wavelength (nm)	Logarithm epsilon
224.86	1.657
225.19	1.59
225.49	1.529
225.75	1.48
226.04	1.428
226.34	1.385
226.63	1.346
226.93	1.302
227.16	1.277
227.52	1.243
227.82	1.222
228.11	1.199
228.35	1.187
228.62	1.18
229	1.175
229.3	1.175
229.59	1.175
229.93	1.181
230.25	1.191
230.5	1.205
230.77	1.222
231.08	1.243
231.37	1.264
231.66	1.283
231.96	1.302
232.21	1.317
232.5	1.336
232.85	1.362
233.14	1.385
233.44	1.4
233.8	1.425
234.03	1.442
234.32	1.455
234.62	1.474
234.92	1.486
235.21	1.504
235.51	1.521
235.8	1.532
236.1	1.547
236.39	1.563
236.64	1.577
236.99	1.592
237.32	1.602
237.58	1.615
237.87	1.628
238.19	1.643
238.46	1.657
238.76	1.669
239.06	1.685
239.35	1.7
239.65	1.714
239.94	1.731
240.24	1.748
240.53	1.761
240.83	1.777
241.13	1.792
241.42	1.806
241.72	1.82
242.01	1.837
242.31	1.855
242.61	1.868
242.9	1.878
243.2	1.89
243.49	1.894
243.79	1.901
244.08	1.91
244.38	1.919
244.68	1.928
244.97	1.937
245.27	1.947
245.56	1.957
245.86	1.969
246.19	1.984
246.45	1.996
246.75	2.013
247.04	2.037
247.34	2.053
247.63	2.069
247.93	2.08
248.23	2.088
248.52	2.088
248.82	2.076
249.09	2.055
249.41	2.04
249.72	2.034
250	2.042
250.38	2.061
250.59	2.079
250.89	2.105
251.18	2.126
251.48	2.148
251.77	2.166
252.07	2.184
252.37	2.202
252.66	2.213
252.96	2.223
253.25	2.231
253.55	2.234
253.85	2.238
254.14	2.239
254.44	2.238
254.73	2.234
255.03	2.229
255.32	2.223
255.62	2.218
255.92	2.211
256.21	2.203
256.51	2.201
256.8	2.205
257.1	2.217
257.39	2.237
257.69	2.257
257.99	2.275
258.28	2.289
258.58	2.301
258.87	2.311
259.17	2.313
259.46	2.311
259.76	2.303
260.06	2.3
260.35	2.298
260.65	2.301
260.94	2.31
261.12	2.319
261.32	2.324
261.37	2.324
261.41	2.324
261.45	2.324
261.49	2.324
261.54	2.324
261.66	2.321
261.79	2.319
261.92	2.315
262.04	2.308
262.17	2.293
262.3	2.281
262.42	2.271
262.55	2.257
262.68	2.247
262.8	2.231
262.93	2.22
263.06	2.206
263.18	2.189
263.31	2.182
263.44	2.177
263.56	2.176
263.69	2.178
263.82	2.185
263.93	2.192
264.07	2.197
264.17	2.199
264.27	2.201
264.45	2.202
264.57	2.201
264.7	2.2
264.83	2.194
264.96	2.187
265.08	2.18
265.21	2.17
265.33	2.161
265.46	2.151
265.59	2.14
265.71	2.131
265.82	2.122
265.94	2.113
266.06	2.102
266.18	2.093
266.33	2.081
266.46	2.071
266.58	2.065
266.73	2.061
266.86	2.065
266.96	2.076
267.02	2.09
267.11	2.115
267.24	2.149
267.37	2.173
267.47	2.196
267.57	2.21
267.72	2.224
267.86	2.233
268	2.24
268.12	2.242
268.25	2.239
268.4	2.232
268.56	2.214
268.63	2.202
268.76	2.167
268.89	2.129
269.01	2.092
269.14	2.065
269.27	2.025
269.39	1.998
269.52	1.961
269.61	1.935
269.77	1.901
269.9	1.875
270.03	1.829
270.15	1.798
270.28	1.761
270.41	1.721
270.54	1.685
270.66	1.649
270.79	1.61
270.92	1.568
271.04	1.537
271.17	1.509
271.3	1.48
271.39	1.451
271.55	1.414
271.68	1.385
271.79	1.359
271.93	1.329
272.04	1.297
272.18	1.264
272.27	1.245
272.44	1.211
272.54	1.193
272.69	1.163
272.81	1.135
272.92	1.11
273.05	1.086
273.19	1.066
273.32	1.048
273.45	1.031
273.58	1.014
273.7	0.996
273.76	0.986
