Uv/Vis Spectrum: Benzene, decyl-
Formula: C16H26
CAS: 104-72-3
Melting point: - 14.4
Boiling point: 298
Instrument: unknown
Origin: INSTITUTE OF ENERGY PROBLEMS OF CHEMICAL PHYSICS, RAS
Wavelength (nm)	Logarithm epsilon
224.98	1.708
225.02	1.708
225.28	1.621
225.57	1.575
225.87	1.529
226.16	1.496
226.46	1.465
226.76	1.433
227.05	1.398
227.35	1.368
227.64	1.343
227.77	1.332
228.09	1.318
228.48	1.306
228.82	1.3
229.12	1.3
229.42	1.3
229.71	1.3
230.01	1.3
230.3	1.304
230.63	1.309
230.89	1.318
231.17	1.327
231.59	1.344
231.84	1.355
232.08	1.368
232.29	1.381
232.67	1.405
232.97	1.421
233.26	1.433
233.51	1.444
233.87	1.46
234.14	1.478
234.44	1.49
234.74	1.507
235.03	1.529
235.33	1.545
235.62	1.565
235.92	1.575
236.21	1.59
236.51	1.612
236.81	1.626
237.1	1.638
237.4	1.655
237.69	1.667
237.99	1.679
238.29	1.689
238.58	1.701
238.84	1.708
239.17	1.719
239.47	1.726
239.76	1.739
240.06	1.752
240.35	1.762
240.65	1.777
240.94	1.798
241.24	1.815
241.53	1.837
241.83	1.853
242.13	1.868
242.4	1.877
242.69	1.888
243.01	1.894
243.33	1.898
243.6	1.901
243.9	1.906
244.19	1.908
244.49	1.91
244.79	1.919
245.08	1.93
245.38	1.951
245.67	1.969
245.97	1.99
246.26	2.014
246.56	2.028
246.85	2.049
247.15	2.062
247.45	2.075
247.74	2.09
248.04	2.1
248.33	2.107
248.63	2.112
248.92	2.11
249.22	2.107
249.51	2.106
249.81	2.104
250.11	2.103
250.4	2.107
250.7	2.11
250.99	2.117
251.29	2.13
251.58	2.148
251.88	2.172
252.17	2.196
252.47	2.221
252.77	2.239
253.06	2.251
253.36	2.253
253.65	2.25
253.95	2.244
254.24	2.244
254.54	2.247
254.83	2.251
255.13	2.246
255.43	2.237
255.72	2.227
256.02	2.216
256.31	2.212
256.61	2.211
256.9	2.213
257.2	2.222
257.49	2.234
257.79	2.258
258.09	2.288
258.38	2.31
258.56	2.32
258.72	2.325
258.89	2.327
258.93	2.327
258.97	2.327
259.01	2.328
259.06	2.328
259.1	2.328
259.14	2.329
259.18	2.329
259.23	2.329
259.31	2.328
259.44	2.328
259.56	2.325
259.69	2.321
259.82	2.317
259.94	2.313
260.07	2.311
260.2	2.31
260.32	2.312
260.49	2.317
260.61	2.323
260.7	2.327
260.81	2.333
260.94	2.341
261.06	2.348
261.21	2.354
261.34	2.359
261.46	2.36
261.64	2.358
261.8	2.349
261.93	2.339
262.03	2.334
262.1	2.325
262.25	2.309
262.35	2.293
262.48	2.272
262.6	2.257
262.73	2.238
262.86	2.222
262.98	2.205
263.11	2.197
263.24	2.184
263.36	2.177
263.49	2.173
263.62	2.176
263.74	2.182
263.87	2.19
264	2.199
264.12	2.21
264.25	2.213
264.38	2.216
264.5	2.216
264.63	2.214
264.76	2.212
264.88	2.207
265.01	2.202
265.14	2.196
265.26	2.184
265.39	2.173
265.52	2.166
265.64	2.155
265.77	2.142
265.9	2.131
266.02	2.116
266.15	2.102
266.28	2.088
266.4	2.078
266.53	2.064
266.66	2.057
266.78	2.053
266.91	2.053
267.04	2.065
267.16	2.082
267.29	2.113
267.42	2.147
267.54	2.181
267.67	2.212
267.8	2.244
267.87	2.254
268.01	2.264
268.18	2.271
268.3	2.273
268.45	2.271
268.62	2.265
268.74	2.256
268.81	2.251
268.94	2.238
269.06	2.207
269.19	2.183
269.32	2.158
269.44	2.128
269.57	2.09
269.7	2.048
269.82	2.007
269.95	1.981
270.08	1.93
270.2	1.899
270.33	1.858
270.46	1.824
270.58	1.777
270.71	1.749
270.84	1.708
270.96	1.671
271.09	1.655
271.22	1.621
271.34	1.594
271.47	1.555
271.6	1.535
271.72	1.507
271.85	1.478
271.98	1.459
272.1	1.426
272.23	1.398
272.36	1.375
272.48	1.343
272.61	1.326
