Uv/Vis Spectrum: Azulene,1,3-diacetyl-
Formula: C14H12O2
CAS: 10487-55-5
Instrument: n.i.g.
Origin: INSTITUTE OF ENERGY PROBLEMS OF CHEMICAL PHYSICS, RAS
Wavelength (nm)	Logarithm epsilon
233.71	5.099
234.71	5.115
235.72	5.135
236.72	5.151
237.72	5.176
238.72	5.202
239.72	5.228
240.72	5.248
241.72	5.274
242.73	5.305
243.73	5.336
244.73	5.372
245.73	5.393
246.73	5.418
247.73	5.439
248.73	5.465
249.74	5.485
250.74	5.511
251.74	5.532
252.74	5.542
253.74	5.547
254.74	5.537
255.74	5.511
256.75	5.475
257.75	5.429
258.75	5.367
259.75	5.279
260.75	5.161
261.75	5.032
262.75	4.934
263.76	4.857
264.76	4.801
265.76	4.764
266.76	4.739
267.76	4.723
268.76	4.728
269.76	4.734
270.76	4.759
271.77	4.806
272.77	4.837
273.77	4.873
274.77	4.909
275.77	4.955
276.77	4.991
277.77	5.032
278.78	5.063
279.78	5.109
280.78	5.151
281.78	5.197
282.78	5.238
283.78	5.264
284.78	5.315
285.79	5.351
286.79	5.387
287.79	5.408
288.79	5.434
289.79	5.454
290.79	5.48
291.79	5.511
292.8	5.542
293.8	5.573
294.8	5.609
295.8	5.645
296.8	5.701
297.8	5.722
298.8	5.707
299.81	5.676
300.81	5.629
301.81	5.588
302.81	5.552
303.81	5.521
304.81	5.495
305.81	5.475
306.82	5.454
307.82	5.449
308.82	5.439
309.82	5.434
310.82	5.434
311.82	5.439
312.82	5.449
313.82	5.454
314.83	5.465
315.83	5.47
316.83	5.47
317.83	5.48
318.83	5.506
319.83	5.521
320.83	5.506
321.84	5.475
322.84	5.439
323.84	5.362
324.84	5.228
325.84	5.151
326.84	5.073
327.84	5.017
328.85	4.955
329.85	4.909
330.85	4.867
331.85	4.826
332.85	4.795
333.85	4.764
334.85	4.739
335.86	4.708
336.86	4.687
337.86	4.667
338.86	4.656
339.86	4.641
340.86	4.636
341.86	4.62
342.87	4.615
343.87	4.605
344.87	4.595
345.87	4.589
346.87	4.584
347.87	4.579
348.87	4.569
349.87	4.569
350.88	4.564
351.88	4.564
355.88	4.564
356.88	4.559
357.89	4.564
358.89	4.579
359.89	4.584
360.89	4.589
361.89	4.605
362.89	4.615
363.89	4.636
364.9	4.651
365.9	4.662
366.9	4.687
367.9	4.703
368.9	4.718
369.9	4.734
370.9	4.754
371.91	4.77
372.91	4.785
373.91	4.795
374.91	4.816
375.91	4.826
376.91	4.842
377.91	4.857
378.92	4.873
379.92	4.888
380.92	4.909
381.92	4.924
382.92	4.94
383.92	4.945
384.92	4.965
385.92	4.97
386.93	4.991
387.93	4.996
388.93	5.001
389.93	4.996
390.93	4.996
391.93	4.996
392.93	4.991
393.94	4.991
394.94	4.986
395.94	4.981
396.94	4.976
397.94	4.97
398.94	4.97
399.94	4.97
400.95	4.97
401.95	4.97
402.95	4.97
403.95	4.976
404.95	4.97
405.95	4.97
406.95	4.965
407.96	4.965
408.96	4.96
409.96	4.955
410.96	4.94
411.96	4.919
412.96	4.867
413.96	4.801
414.97	4.584
415.97	4.481
416.97	4.399
417.97	4.291
418.97	4.178
419.3	4.167
419.64	4.147
419.97	4.136
