Uv/Vis Spectrum: N,N'-Dibenzylideneethylenediamine
Formula: C16H16N2
CAS: 104-71-2
Instrument: SF-4
Origin: INSTITUTE OF ENERGY PROBLEMS OF CHEMICAL PHYSICS, RAS
Wavelength (nm)	Logarithm epsilon
230.49	4.977
230.66	4.973
230.83	4.97
231	4.968
231.17	4.964
231.34	4.962
231.51	4.96
231.68	4.956
231.85	4.954
232.02	4.951
232.18	4.947
232.52	4.943
232.86	4.939
233.2	4.93
233.54	4.922
233.88	4.918
234.22	4.911
234.55	4.907
234.89	4.899
235.23	4.89
235.57	4.886
235.91	4.884
236.25	4.886
236.58	4.888
236.92	4.89
237.26	4.892
237.6	4.897
237.94	4.899
238.28	4.901
238.62	4.907
238.95	4.909
239.29	4.911
239.63	4.918
239.97	4.92
240.31	4.922
240.65	4.922
240.98	4.92
241.32	4.918
241.66	4.918
242	4.911
242.34	4.905
242.68	4.899
243.02	4.892
243.35	4.884
243.69	4.878
244.03	4.871
244.37	4.863
244.71	4.856
245.05	4.85
245.38	4.844
245.72	4.84
246.06	4.837
246.4	4.837
246.74	4.837
247.08	4.84
247.42	4.842
247.75	4.842
248.09	4.842
248.43	4.842
248.77	4.842
249.11	4.842
249.45	4.842
249.78	4.84
250.12	4.84
250.46	4.837
252.15	4.827
252.32	4.827
252.49	4.825
252.66	4.825
252.83	4.823
253	4.823
253.17	4.821
253.34	4.821
253.51	4.818
253.68	4.818
253.85	4.816
254.69	4.812
255.54	4.804
256.38	4.793
257.23	4.78
258.08	4.766
258.92	4.753
259.77	4.74
260.62	4.723
261.46	4.7
262.31	4.675
263.15	4.65
264	4.616
264.85	4.582
265.69	4.55
266.54	4.496
267.38	4.466
268.23	4.441
269.08	4.42
269.92	4.401
270.77	4.382
271.62	4.363
272.46	4.348
273.31	4.329
274.15	4.314
275	4.299
275.85	4.28
276.69	4.268
277.54	4.251
278.38	4.238
279.23	4.221
280.08	4.206
280.92	4.189
281.77	4.173
282.62	4.154
283.46	4.137
284.31	4.116
285.15	4.097
286	4.075
286.85	4.059
287.69	4.04
288.54	4.018
289.39	3.997
290.23	3.976
291.08	3.955
291.92	3.936
292.77	3.917
293.62	3.902
294.46	3.886
295.31	3.871
296.15	3.858
297	3.841
297.85	3.829
298.69	3.816
299.54	3.803
300.39	3.791
301.23	3.784
302.08	3.774
302.92	3.765
303.77	3.757
304.62	3.748
305.46	3.744
306.31	3.738
307.15	3.727
308	3.717
308.85	3.708
309.69	3.698
310.54	3.685
311.39	3.668
312.23	3.653
313.08	3.634
313.92	3.613
314.77	3.586
315.62	3.571
316.46	3.544
317.31	3.514
318.15	3.48
319	3.449
319.85	3.415
320.69	3.377
321.54	3.335
322.39	3.282
323.23	3.229
324.08	3.151
