Uv/Vis Spectrum: Benzonitrile, 4-methyl-
Formula: C8H7N
CAS: 104-85-8
Melting point: 29.5
Boiling point: 217
Instrument: SF-4
Origin: INSTITUTE OF ENERGY PROBLEMS OF CHEMICAL PHYSICS, RAS
Wavelength (nm)	Logarithm epsilon
201.94	4.023
202.15	4.027
202.37	4.031
202.59	4.035
202.8	4.039
203.02	4.048
203.23	4.052
203.45	4.056
203.66	4.06
203.88	4.064
204.09	4.069
204.52	4.073
205.17	4.085
205.82	4.093
206.46	4.114
207.11	4.122
207.76	4.135
208.4	4.152
209.05	4.156
209.69	4.172
210.34	4.181
210.99	4.185
211.63	4.181
212.28	4.176
212.93	4.172
213.57	4.168
214.22	4.164
214.86	4.164
215.29	4.171
215.51	4.172
215.73	4.172
215.95	4.171
216.16	4.168
216.37	4.167
216.59	4.166
216.8	4.164
217.01	4.162
217.23	4.16
217.45	4.156
217.64	4.147
217.88	4.131
218.1	4.106
218.31	4.073
218.53	4.069
218.74	4.069
218.96	4.069
219.17	4.073
219.39	4.077
219.65	4.085
219.83	4.092
220.02	4.103
220.25	4.114
220.47	4.122
220.68	4.131
220.9	4.139
221.11	4.147
221.33	4.152
221.52	4.154
221.73	4.157
221.97	4.16
222.19	4.16
222.41	4.16
222.62	4.16
222.84	4.16
223.06	4.157
223.27	4.153
223.45	4.15
223.69	4.146
223.91	4.143
224.13	4.139
224.32	4.137
224.56	4.135
224.77	4.131
224.99	4.122
225.21	4.118
225.42	4.114
225.64	4.102
225.85	4.089
226.07	4.081
226.28	4.048
226.5	4.039
226.71	4.023
226.93	4.006
227.14	3.981
227.36	3.977
227.58	3.961
227.79	3.944
228.01	3.927
228.22	3.898
228.44	3.882
228.65	3.861
228.87	3.845
229.08	3.824
229.3	3.803
229.51	3.786
229.73	3.766
229.95	3.72
230.16	3.699
230.38	3.662
230.59	3.641
230.81	3.62
231.02	3.583
231.24	3.513
231.45	3.5
231.67	3.421
231.88	3.338
232.1	3.297
232.32	3.26
232.53	3.255
232.75	3.251
232.96	3.251
233.18	3.251
233.39	3.255
233.61	3.26
233.82	3.264
234.04	3.272
234.25	3.276
234.47	3.28
234.68	3.28
234.9	3.28
235.12	3.28
235.33	3.28
235.55	3.28
235.76	3.28
235.98	3.276
236.19	3.276
236.41	3.268
236.62	3.264
236.84	3.26
237.05	3.26
237.27	3.26
237.49	3.264
237.7	3.268
237.92	3.276
238.13	3.28
238.35	3.284
238.56	3.293
238.78	3.297
238.99	3.301
239.21	3.305
239.42	3.309
239.64	3.309
239.86	3.313
240.07	3.313
240.29	3.313
240.5	3.318
240.72	3.318
240.93	3.318
241.15	3.322
241.36	3.326
241.59	3.329
241.79	3.334
242.01	3.338
242.24	3.346
242.43	3.355
242.66	3.359
242.87	3.363
243.09	3.363
243.3	3.363
243.52	3.363
243.73	3.359
243.95	3.351
244.16	3.33
244.38	3.326
244.59	3.326
244.81	3.33
245.03	3.343
245.24	3.351
245.46	3.355
245.63	3.358
245.89	3.359
246.1	3.359
246.32	3.359
246.53	3.355
246.75	3.347
246.96	3.343
247.18	3.343
247.4	3.347
247.61	3.355
247.83	3.388
248.04	3.517
248.22	3.525
248.5	3.53
248.69	3.532
248.88	3.531
249.11	3.53
249.4	3.527
249.54	3.526
249.77	3.521
249.98	3.492
250.24	3.487
250.63	3.488
250.84	3.513
251	3.523
251.23	3.526
251.49	3.529
251.7	3.529
251.92	3.529
252.13	3.529
252.36	3.526
252.57	3.525
252.74	3.516
253	3.496
253.21	3.474
253.43	3.471
253.64	3.471
253.86	3.475
254.07	3.488
254.29	3.496
254.5	3.5
254.72	3.504
254.94	3.504
255.15	3.504
255.37	3.504
255.58	3.504
255.8	3.504
255.99	3.504
256.23	3.504
256.41	3.505
256.66	3.508
256.87	3.513
257.16	3.523
257.31	3.533
257.52	3.55
257.73	3.561
257.95	3.575
258.17	3.591
258.34	3.607
258.6	3.625
258.81	3.629
259.03	3.629
259.24	3.629
259.46	3.625
259.66	3.613
259.89	3.596
260.13	3.584
260.32	3.562
260.5	3.551
260.75	3.538
260.93	3.526
261.18	3.513
261.4	3.496
261.58	3.488
261.68	3.483
261.77	3.472
262.01	3.463
262.29	3.443
262.57	3.431
262.76	3.417
263.04	3.406
263.28	3.396
263.55	3.392
263.77	3.392
263.98	3.392
264.2	3.401
264.41	3.417
264.64	3.439
265.02	3.47
265.11	3.48
265.28	3.488
265.49	3.5
265.71	3.517
265.92	3.529
266.14	3.533
266.35	3.533
266.57	3.529
266.76	3.515
267	3.504
267.22	3.5
267.43	3.496
267.65	3.492
267.86	3.492
268.08	3.496
268.29	3.496
268.51	3.5
268.74	3.509
268.94	3.513
269.15	3.513
269.37	3.508
269.49	3.499
269.68	3.488
269.87	3.472
270.23	3.438
270.43	3.423
270.62	3.401
270.85	3.367
271.09	3.33
271.23	3.296
271.42	3.247
271.74	3.177
271.95	3.172
272.17	3.172
272.39	3.172
272.64	3.19
272.83	3.219
273.03	3.239
273.25	3.276
273.46	3.301
273.68	3.33
273.87	3.345
274.05	3.36
274.29	3.372
274.54	3.384
274.76	3.392
274.97	3.396
275.19	3.396
275.4	3.392
275.65	3.387
275.83	3.372
276.01	3.301
276.13	3.227
276.22	3.144
276.34	3.009
276.41	2.898
276.5	2.778
276.6	2.655
276.71	2.515
276.91	2.392
277.13	2.289
277.56	2.098
277.99	1.915
278.42	1.762
278.85	1.617
279.28	1.492
279.71	1.413
280.14	1.31
280.57	1.185
281	1.123
281.43	1.081
