Uv/Vis Spectrum: Pyridine, 5-ethyl-2-methyl-
Formula: C8H11N
CAS: 104-90-5
Boiling point: 178
Instrument: SF-4
Origin: INSTITUTE OF ENERGY PROBLEMS OF CHEMICAL PHYSICS, RAS
Wavelength (nm)	Logarithm epsilon
220.43	3.603
220.46	3.6
220.52	3.596
220.57	3.59
220.64	3.58
220.81	3.561
221.03	3.537
221.37	3.507
221.72	3.478
222.06	3.447
222.4	3.411
222.75	3.378
223.09	3.343
223.43	3.308
223.77	3.28
224.12	3.256
224.46	3.234
224.76	3.214
225.15	3.193
225.49	3.175
225.83	3.16
226.18	3.144
226.57	3.132
227.13	3.12
227.8	3.107
228.49	3.097
229.35	3.09
230.12	3.086
230.94	3.091
231.64	3.098
232.39	3.106
233.03	3.112
233.72	3.121
234.48	3.131
235.18	3.141
235.87	3.152
236.56	3.163
237.24	3.172
237.93	3.184
238.62	3.196
239.3	3.204
239.99	3.212
240.59	3.226
241.27	3.236
241.96	3.246
242.56	3.259
243.25	3.271
243.93	3.283
244.62	3.294
245.31	3.305
245.91	3.316
246.51	3.327
247.11	3.339
247.62	3.351
248.23	3.364
248.78	3.375
249.36	3.387
249.94	3.398
250.45	3.409
250.97	3.419
251.48	3.431
251.93	3.442
252.45	3.453
252.91	3.463
253.42	3.475
253.89	3.485
254.31	3.497
254.74	3.507
255.17	3.517
255.6	3.528
256.03	3.539
256.37	3.549
256.79	3.559
257.23	3.569
257.56	3.577
257.92	3.586
258.26	3.595
258.64	3.605
258.95	3.613
259.28	3.623
259.63	3.633
259.88	3.641
260.15	3.648
260.41	3.656
260.71	3.665
261.01	3.673
261.26	3.681
261.52	3.689
261.78	3.697
262.12	3.705
262.38	3.711
262.81	3.718
263.24	3.724
263.75	3.73
264.27	3.735
264.87	3.74
265.47	3.745
265.98	3.751
266.32	3.757
266.75	3.763
267.01	3.77
267.25	3.774
267.52	3.776
267.86	3.777
268.21	3.778
268.38	3.777
268.47	3.777
268.55	3.777
268.64	3.777
268.73	3.776
268.81	3.776
269.07	3.773
269.35	3.768
269.7	3.755
269.83	3.749
269.89	3.745
269.97	3.741
270.13	3.734
270.36	3.724
270.7	3.707
271.04	3.692
271.35	3.677
271.67	3.667
272.07	3.658
272.42	3.653
272.77	3.652
273.1	3.648
273.48	3.647
273.75	3.645
274.2	3.64
274.47	3.637
274.82	3.633
275.16	3.629
275.5	3.624
275.85	3.616
276.19	3.604
276.34	3.59
276.44	3.574
276.52	3.555
276.57	3.542
276.76	3.49
276.96	3.441
277.3	3.353
277.65	3.264
277.99	3.169
278.33	3.09
278.68	3.011
279.02	2.945
279.36	2.897
279.71	2.862
280.05	2.83
280.39	2.796
280.92	2.746
281.49	2.703
282.11	2.656
282.62	2.612
283.26	2.571
284	2.529
284.68	2.487
285.45	2.457
286.09	2.445
287	2.442
