Uv/Vis Spectrum: Cinnamylaldehyde
Formula: C9H8O
CAS: 104-55-2
Boiling point: 89/ 1 mm
Instrument: Perkin- Elmer
Origin: INSTITUTE OF ENERGY PROBLEMS OF CHEMICAL PHYSICS, RAS
Wavelength (nm)	Logarithm epsilon
210.21	4.03
210.31	4.03
210.4	4.03
210.5	4.03
210.59	4.03
210.69	4.027
210.79	4.027
210.88	4.027
210.98	4.027
211.08	4.027
211.17	4.025
211.27	4.025
211.37	4.025
211.46	4.025
211.56	4.025
211.66	4.023
211.76	4.021
212.15	4.019
212.54	4.015
212.93	4.01
213.33	4.006
213.72	4.008
214.12	4.006
214.52	4.008
214.92	4.01
215.32	4.017
215.72	4.023
216.13	4.034
216.54	4.044
216.94	4.059
217.35	4.07
217.77	4.081
218.18	4.089
218.59	4.091
219.01	4.089
219.43	4.083
219.85	4.079
220.27	4.07
220.69	4.059
221.11	4.055
221.54	4.049
221.96	4.047
222.39	4.047
222.82	4.051
223.26	4.055
223.69	4.062
224.13	4.07
224.56	4.07
225	4.062
225.44	4.053
225.89	4.038
226.33	4.019
226.78	3.995
227.22	3.953
227.67	3.904
228.12	3.846
228.58	3.786
229.03	3.742
229.49	3.707
229.95	3.646
230.41	3.59
230.87	3.528
231.33	3.477
231.8	3.426
232.27	3.362
232.74	3.311
233.21	3.26
233.68	3.242
234.16	3.23
234.63	3.221
235.11	3.217
235.59	3.213
236.08	3.213
236.56	3.219
237.05	3.225
237.54	3.234
238.03	3.245
238.52	3.255
239.02	3.266
239.52	3.277
240.02	3.292
240.52	3.306
241.02	3.321
241.53	3.336
242.04	3.353
242.55	3.368
243.06	3.379
243.57	3.388
244.09	3.402
244.61	3.42
245.13	3.439
245.65	3.456
246.18	3.477
246.7	3.496
247.23	3.515
247.77	3.535
248.3	3.552
248.84	3.571
249.38	3.592
249.92	3.616
250.46	3.639
251.01	3.656
251.56	3.675
252.11	3.697
252.66	3.722
253.22	3.739
253.78	3.757
254.34	3.776
254.9	3.797
255.47	3.816
256.03	3.835
256.6	3.852
257.18	3.88
257.75	3.899
258.33	3.919
258.91	3.942
259.5	3.959
260.08	3.974
260.67	3.991
261.26	4.008
261.86	4.03
262.46	4.044
263.06	4.059
263.66	4.074
264.26	4.096
264.87	4.106
265.48	4.119
266.1	4.132
266.71	4.147
267.33	4.164
267.95	4.177
268.58	4.189
269.21	4.202
269.84	4.217
270.47	4.23
271.11	4.243
271.75	4.253
272.39	4.264
273.04	4.275
273.69	4.285
274.34	4.296
275	4.307
275.66	4.317
276.32	4.326
276.98	4.335
277.65	4.343
278.32	4.349
279	4.356
279.67	4.362
280.36	4.367
281.04	4.371
281.73	4.375
282.42	4.377
283.11	4.381
283.81	4.384
284.51	4.386
285.22	4.386
285.93	4.386
286.64	4.386
287.35	4.388
288.07	4.388
288.8	4.386
289.52	4.381
290.25	4.377
290.99	4.373
291.72	4.369
292.47	4.36
293.21	4.352
293.96	4.345
294.71	4.337
295.47	4.328
296.23	4.317
296.99	4.305
297.76	4.288
298.53	4.275
299.31	4.26
300.09	4.243
300.88	4.224
301.66	4.209
302.46	4.187
303.25	4.168
304.05	4.147
304.86	4.126
305.67	4.094
306.48	4.066
307.3	4.042
308.12	4.012
308.95	3.98
309.78	3.948
310.62	3.914
311.46	3.878
312.3	3.838
313.15	3.803
314.01	3.763
314.87	3.707
315.73	3.658
316.6	3.605
317.47	3.543
318.35	3.471
319.23	3.388
320.12	3.315
321.01	3.236
321.62	3.195
322.82	3.119
323.94	3.056
324.74	3.001
325.55	2.946
326.48	2.893
327.41	2.839
328.34	2.78
329.28	2.731
330.22	2.684
331.17	2.624
332.13	2.577
333.09	2.526
333.9	2.485
334.96	2.446
335.89	2.417
336.9	2.381
337.92	2.344
338.89	2.318
339.98	2.287
340.99	2.259
342	2.236
343.02	2.217
344.04	2.195
345.08	2.172
346.11	2.146
347.16	2.125
348.21	2.106
349.26	2.082
350.33	2.061
351.4	2.035
352.47	2.014
353.55	1.984
354.64	1.961
355.74	1.935
356.84	1.909
357.95	1.877
359.07	1.854
360.19	1.824
361.32	1.794
362.46	1.762
363.61	1.732
364.76	1.705
365.92	1.673
367.09	1.643
368.26	1.604
369.44	1.568
370.63	1.536
371.83	1.5
373.03	1.464
374.25	1.43
375.47	1.389
376.7	1.355
377.93	1.314
379.18	1.276
380.43	1.223
381.69	1.178
382.96	1.131
384.24	1.086
