Uv/Vis Spectrum: p-Octylacetophenone
Formula: C16H24O
CAS: 10541-56-7
Boiling point: 128-130/ 0.15 mm
Instrument: Beckman DU
Origin: INSTITUTE OF ENERGY PROBLEMS OF CHEMICAL PHYSICS, RAS
Wavelength (nm)	Logarithm epsilon
209.33	4.241
210.18	4.218
211.03	4.194
211.87	4.18
212.72	4.177
213.57	4.167
214.42	4.16
215.27	4.099
216.12	4.059
216.96	3.977
217.81	3.94
218.66	3.852
219.51	3.713
220.36	3.598
221.2	3.496
222.05	3.378
222.9	3.303
223.75	3.276
224.6	3.266
226.29	3.283
227.14	3.314
227.99	3.327
228.84	3.375
229.69	3.439
230.53	3.503
231.38	3.544
233.08	3.652
234.77	3.737
235.62	3.788
236.47	3.822
237.32	3.872
238.17	3.896
239.02	3.926
239.86	3.977
241.56	4.028
243.26	4.082
244.95	4.116
245.8	4.15
246.65	4.16
248.35	4.174
249.19	4.187
250.04	4.194
250.89	4.194
251.74	4.187
252.59	4.184
253.43	4.177
254.28	4.167
255.13	4.153
256.83	4.103
257.68	4.075
258.52	4.059
259.37	4.018
260.22	3.981
261.07	3.94
261.92	3.882
262.76	3.825
263.61	3.717
264.46	3.639
265.31	3.578
266.16	3.493
267	3.405
267.85	3.341
268.7	3.276
269.55	3.219
270.4	3.175
271.25	3.131
272.09	3.11
273.79	3.08
274.64	3.076
275.49	3.073
276.33	3.07
277.18	3.063
278.03	3.053
278.88	3.012
279.73	2.978
280.58	2.951
282.27	2.9
283.12	2.873
283.97	2.856
286.51	2.816
287.36	2.809
288.21	2.806
289.06	2.799
290.75	2.67
291.6	2.548
292.45	2.406
293.3	2.328
294.15	2.243
294.99	2.166
295.84	2.067
296.69	2.023
297.54	1.949
298.39	1.912
299.24	1.864
300.08	1.827
300.93	1.813
301.78	1.796
302.63	1.783
303.48	1.779
305.17	1.773
306.02	1.776
306.87	1.776
307.72	1.779
308.56	1.79
309.41	1.793
311.96	1.81
312.81	1.813
313.65	1.82
314.5	1.824
315.35	1.827
317.05	1.827
317.56	1.83
317.73	1.83
317.89	1.824
317.89	1.83
318.06	1.83
318.23	1.83
318.4	1.83
318.57	1.83
318.74	1.83
318.91	1.83
319.08	1.83
319.25	1.83
319.93	1.813
321.12	1.813
323.49	1.81
324.68	1.807
325.87	1.8
327.05	1.8
329.43	1.776
330.62	1.766
331.8	1.756
332.99	1.742
334.18	1.729
335.37	1.712
336.55	1.698
337.74	1.685
338.93	1.671
341.3	1.63
342.49	1.61
343.68	1.586
344.87	1.556
346.05	1.532
347.24	1.502
348.43	1.468
349.62	1.44
351.99	1.376
353.18	1.335
354.37	1.299
355.55	1.264
356.74	1.237
359.12	1.163
360.3	1.129
362.68	1.031
363.87	0.975
365.05	0.9
366.24	0.828
367.43	0.709
368.61	0.567
369.34	0.449
