Uv/Vis Spectrum: Phenol, 2,4-dimethyl-
Formula: C8H10O
CAS: 105-67-9
Melting point: 24.5
Boiling point: 210.9
Instrument: unknown
Origin: INSTITUTE OF ENERGY PROBLEMS OF CHEMICAL PHYSICS, RAS
Wavelength (nm)	Logarithm epsilon
215.1	3.743
215.27	3.747
215.44	3.747
215.6	3.747
215.77	3.751
215.94	3.751
216.11	3.751
216.28	3.755
216.44	3.755
216.61	3.755
216.78	3.759
216.95	3.759
217.11	3.759
217.28	3.759
217.45	3.764
217.62	3.764
218.46	3.755
219.3	3.755
220.13	3.739
220.97	3.722
221.81	3.714
222.65	3.689
223.49	3.668
224.33	3.643
225.17	3.61
226.01	3.573
226.85	3.548
227.68	3.502
228.52	3.444
229.36	3.39
230.2	3.332
231.04	3.266
231.88	3.187
232.72	3.088
233.56	2.963
234.4	2.864
235.23	2.748
236.07	2.644
236.91	2.528
237.75	2.453
238.59	2.37
239.17	2.317
239.71	2.28
240.12	2.248
240.6	2.217
240.77	2.209
240.94	2.2
241.27	2.183
241.95	2.146
242.49	2.114
243.03	2.088
243.62	2.072
244.46	2.072
245.3	2.084
246.14	2.101
246.98	2.126
247.82	2.15
248.66	2.184
249.5	2.217
252.01	2.329
252.18	2.337
252.35	2.341
252.52	2.35
252.68	2.354
252.85	2.362
253.02	2.366
253.19	2.374
253.36	2.379
254.04	2.411
254.71	2.445
255.37	2.482
256.04	2.52
256.71	2.553
257.38	2.586
258.05	2.623
258.63	2.657
259.4	2.698
260.07	2.731
260.74	2.764
261.41	2.806
262.08	2.847
262.84	2.882
263.42	2.914
264.09	2.947
264.77	2.98
265.44	3.005
266.11	3.038
266.78	3.067
267.45	3.096
268.12	3.125
268.79	3.146
269.46	3.166
270.05	3.185
270.81	3.2
271.52	3.214
272.15	3.225
272.73	3.236
273.49	3.249
274.16	3.262
274.83	3.278
275.55	3.291
276.17	3.299
276.85	3.307
277.52	3.312
278.19	3.312
278.86	3.312
279.53	3.303
280.2	3.283
280.65	3.274
281.54	3.266
282.21	3.262
282.86	3.262
283.56	3.27
284.23	3.278
284.9	3.287
285.57	3.283
285.88	3.265
286.24	3.229
286.91	3.117
287.58	3.017
288.26	2.893
288.93	2.773
289.6	2.656
290.27	2.536
290.94	2.437
291.61	2.337
292.28	2.254
292.95	2.155
293.62	2.051
