Uv/Vis Spectrum: Quinoline, 5,6,7,8-tetrahydro-
Formula: C9H11N
CAS: 10500-57-9
Boiling point: 222.2
Instrument: Beckman DU
Origin: INSTITUTE OF ENERGY PROBLEMS OF CHEMICAL PHYSICS, RAS
Wavelength (nm)	Logarithm epsilon
201.15	3.581
202.53	3.532
202.8	3.522
203.62	3.494
203.98	3.483
204.3	3.472
205.42	3.437
205.79	3.425
206.31	3.414
207.59	3.388
207.96	3.379
208.44	3.37
209.76	3.342
210.14	3.335
210.97	3.319
211.93	3.299
212.3	3.29
212.93	3.281
213.93	3.268
214.47	3.259
215.11	3.243
215.91	3.218
216.27	3.204
216.64	3.191
217	3.178
217.36	3.149
217.76	3.105
218.08	3.058
218.42	3.014
218.81	2.98
219.17	2.957
219.53	2.917
219.89	2.879
220.2	2.853
220.61	2.828
220.88	2.815
221.18	2.798
221.48	2.782
221.76	2.763
222.04	2.743
222.34	2.72
222.6	2.701
222.88	2.683
223.26	2.659
223.86	2.624
224.59	2.586
225.12	2.565
226.04	2.549
226.44	2.547
226.76	2.548
227.12	2.549
227.86	2.556
228.32	2.565
228.7	2.579
229.36	2.6
229.66	2.612
230.02	2.626
230.74	2.655
231.02	2.667
231.4	2.685
231.83	2.704
232.08	2.717
232.46	2.735
232.87	2.751
233.21	2.763
233.63	2.78
234.36	2.805
234.77	2.819
235.22	2.833
235.8	2.853
236.58	2.88
237.25	2.902
237.61	2.917
237.91	2.931
238.18	2.943
238.56	2.958
238.86	2.972
239.2	2.985
239.54	3.002
239.92	3.018
240.29	3.033
240.87	3.057
241.13	3.068
241.39	3.079
241.77	3.092
242.31	3.112
242.61	3.121
242.91	3.134
243.29	3.147
243.78	3.168
244.16	3.182
244.69	3.202
245.26	3.227
245.93	3.259
246.1	3.267
246.42	3.281
247.02	3.307
247.3	3.32
247.66	3.334
248.14	3.351
248.46	3.362
248.81	3.374
249.15	3.386
249.42	3.396
249.81	3.411
250.14	3.426
250.69	3.455
250.93	3.466
251.86	3.501
252.08	3.509
252.44	3.52
253.28	3.547
253.53	3.555
253.89	3.566
254.81	3.602
255.06	3.612
255.33	3.621
255.54	3.629
256.42	3.664
256.67	3.671
257	3.68
257.38	3.691
257.87	3.704
258.69	3.727
258.95	3.733
259.41	3.743
259.81	3.752
260.16	3.76
260.4	3.764
260.76	3.773
261.2	3.784
261.48	3.79
261.8	3.794
262.19	3.797
262.57	3.799
263.28	3.801
263.49	3.801
263.68	3.801
264.02	3.801
264.38	3.799
264.75	3.795
265.13	3.791
265.51	3.786
265.82	3.782
266.36	3.77
266.96	3.756
267.63	3.739
269.08	3.693
269.44	3.681
269.89	3.665
270.52	3.641
270.93	3.62
271.23	3.606
271.61	3.583
271.97	3.565
272.47	3.538
272.97	3.505
273.42	3.46
273.71	3.432
274.14	3.371
274.41	3.337
274.5	3.317
275.23	3.187
275.6	3.127
275.89	3.077
276.31	3.009
276.67	2.925
277.03	2.859
277.4	2.764
277.76	2.713
278.03	2.679
278.48	2.629
278.92	2.546
279.27	2.485
279.57	2.44
279.92	2.398
280.36	2.355
280.71	2.308
281.01	2.282
281.31	2.246
281.74	2.184
281.8	2.176
