Uv/Vis Spectrum: Benzene, 1,4-diethyl-
Formula: C10H14
CAS: 105-05-5
Melting point: - 42.8
Boiling point: 183.7
Instrument: unknown
Origin: INSTITUTE OF ENERGY PROBLEMS OF CHEMICAL PHYSICS, RAS
Wavelength (nm)	Logarithm epsilon
229.38	2.294
229.43	2.295
229.6	2.252
229.81	2.21
230.02	2.167
230.23	2.128
230.45	2.086
230.66	2.042
230.87	2.004
231.08	1.959
231.3	1.926
231.68	1.85
231.85	1.829
231.97	1.806
232.14	1.783
232.31	1.758
232.48	1.731
232.65	1.703
232.91	1.677
233.12	1.649
233.42	1.623
233.76	1.601
234.14	1.587
234.52	1.572
234.9	1.567
235.3	1.566
235.66	1.564
236.05	1.566
236.43	1.572
236.78	1.58
237.15	1.591
237.53	1.603
237.88	1.614
238.24	1.628
238.6	1.64
238.95	1.653
239.33	1.666
239.66	1.677
240	1.692
240.34	1.706
240.68	1.724
241.02	1.738
241.36	1.754
241.66	1.77
242	1.786
242.29	1.8
242.59	1.815
242.89	1.831
243.18	1.847
243.48	1.863
243.74	1.878
244.03	1.89
244.29	1.904
244.54	1.917
244.8	1.93
245.05	1.943
245.31	1.955
245.56	1.969
245.86	1.981
246.11	1.992
246.41	2.004
246.67	2.014
246.96	2.023
247.3	2.032
247.64	2.039
247.98	2.045
248.32	2.053
248.62	2.063
248.92	2.071
249.21	2.08
249.43	2.091
249.68	2.101
249.89	2.113
250.06	2.124
250.23	2.135
250.36	2.147
250.53	2.157
250.7	2.167
250.83	2.177
251.04	2.186
251.21	2.195
251.42	2.204
251.63	2.212
251.89	2.22
252.1	2.228
252.36	2.234
252.61	2.242
252.87	2.248
253.16	2.254
253.5	2.258
253.8	2.263
254.14	2.267
254.48	2.272
254.78	2.277
254.99	2.285
255.12	2.292
255.24	2.3
255.37	2.308
255.54	2.315
255.67	2.322
255.84	2.329
255.97	2.336
256.09	2.344
256.31	2.35
256.43	2.357
256.65	2.363
256.77	2.37
256.94	2.376
257.15	2.382
257.32	2.388
257.54	2.394
257.66	2.401
257.83	2.406
257.96	2.413
258.05	2.419
258.13	2.425
258.22	2.432
258.3	2.438
258.39	2.444
258.47	2.45
258.56	2.455
258.64	2.461
258.72	2.464
258.81	2.466
258.95	2.468
259.11	2.469
259.32	2.47
259.48	2.469
259.57	2.468
259.66	2.466
259.7	2.466
259.79	2.464
259.87	2.462
259.96	2.461
260.04	2.459
260.13	2.456
260.21	2.453
260.3	2.45
260.38	2.448
260.47	2.446
260.55	2.444
260.62	2.442
260.72	2.44
260.8	2.438
260.89	2.436
260.98	2.434
261.06	2.432
261.15	2.43
261.23	2.429
261.32	2.427
261.39	2.426
261.49	2.425
261.57	2.425
261.66	2.424
261.74	2.424
261.83	2.424
261.91	2.425
262	2.425
262.08	2.426
262.17	2.427
262.25	2.429
262.34	2.43
262.42	2.432
262.51	2.434
262.59	2.436
262.69	2.439
262.8	2.443
262.93	2.447
263.03	2.452
263.14	2.456
263.33	2.465
263.44	2.474
263.52	2.482
263.61	2.491
263.69	2.502
263.78	2.515
263.86	2.527
263.95	2.534
264.03	2.542
264.12	2.55
264.2	2.562
264.29	2.57
264.37	2.577
264.46	2.583
264.54	2.587
264.63	2.59
264.71	2.594
264.8	2.598
264.88	2.6
265.05	2.607
265.1	2.607
265.14	2.607
265.18	2.607
265.22	2.607
265.27	2.607
265.31	2.606
265.35	2.606
265.39	2.606
265.44	2.606
265.48	2.604
265.56	2.601
265.65	2.589
265.73	2.579
265.82	2.573
265.9	2.569
265.99	2.566
266.07	2.564
266.16	2.563
266.24	2.563
266.33	2.564
266.41	2.565
266.5	2.567
266.58	2.569
266.67	2.572
266.75	2.574
266.84	2.576
266.92	2.577
267.01	2.578
267.09	2.579
267.18	2.579
267.26	2.579
267.35	2.578
267.43	2.577
267.52	2.575
267.6	2.572
267.69	2.569
267.77	2.564
267.86	2.557
267.94	2.548
268.03	2.538
268.11	2.528
268.2	2.519
268.28	2.51
268.37	2.504
268.45	2.495
268.54	2.487
268.62	2.479
268.7	2.468
268.79	2.461
268.87	2.452
268.96	2.445
269.04	2.438
269.13	2.427
269.21	2.418
269.3	2.409
269.38	2.398
269.47	2.387
269.55	2.38
269.64	2.371
269.72	2.363
269.81	2.355
269.89	2.347
269.98	2.339
270.06	2.331
270.15	2.324
270.23	2.315
270.32	2.307
270.4	2.3
270.48	2.292
270.57	2.285
270.64	2.28
270.74	2.275
270.83	2.273
270.91	2.272
271	2.273
271.08	2.279
271.17	2.288
271.27	2.298
271.35	2.308
271.42	2.319
271.48	2.329
271.53	2.339
271.6	2.353
271.69	2.369
271.77	2.385
271.86	2.403
271.94	2.42
272.05	2.442
272.16	2.464
272.3	2.491
272.38	2.508
272.46	2.523
272.52	2.536
272.61	2.554
272.71	2.573
272.78	2.588
272.83	2.598
272.89	2.607
272.97	2.615
273.04	2.619
273.08	2.62
273.12	2.62
273.16	2.621
273.21	2.621
273.25	2.621
273.29	2.622
273.33	2.622
273.38	2.623
273.46	2.623
273.55	2.621
273.63	2.62
273.72	2.619
273.8	2.616
273.89	2.611
273.97	2.604
274.06	2.599
274.14	2.592
274.23	2.582
274.31	2.569
274.4	2.548
274.53	2.509
274.63	2.483
274.72	2.459
274.82	2.43
274.94	2.395
275.06	2.361
275.16	2.336
275.24	2.312
275.32	2.286
275.41	2.263
275.5	2.237
275.63	2.201
275.71	2.181
275.8	2.165
275.88	2.14
275.97	2.12
276.05	2.105
276.14	2.077
276.22	2.047
276.31	2.023
276.39	2.005
276.48	1.979
276.56	1.959
276.65	1.939
276.73	1.917
276.82	1.897
276.9	1.874
276.98	1.856
277.07	1.834
277.15	1.82
277.24	1.803
277.32	1.789
277.41	1.764
277.49	1.751
277.58	1.734
277.66	1.717
277.75	1.695
277.83	1.68
277.92	1.661
277.99	1.648
278.08	1.63
278.16	1.614
278.26	1.596
278.34	1.572
278.43	1.552
278.5	1.537
278.6	1.52
278.68	1.503
278.75	1.487
278.85	1.46
278.92	1.445
279.02	1.427
279.11	1.406
279.19	1.391
279.28	1.368
279.36	1.352
279.45	1.327
