Uv/Vis Spectrum: 1-Butene
Formula: C4H8
CAS: 106-98-9
Melting point: -185.3
Boiling point: -6.2
Instrument: n.i.g.
Origin: INSTITUTE OF ENERGY PROBLEMS OF CHEMICAL PHYSICS, RAS
Wavelength (nm)	Logarithm epsilon
148.169	2.78286
148.429	2.79017
148.694	2.79782
148.987	2.80249
148.987	2.80249
149.021	2.80531
149.056	2.80805
149.088	2.80248
149.09	2.81075
149.147	2.8019
149.206	2.80128
149.265	2.8006
149.375	2.80001
149.451	2.80068
149.53	2.80129
149.612	2.80186
149.612	2.80186
149.713	2.80954
149.845	2.8164
150.006	2.81767
150.165	2.81632
150.307	2.81419
150.461	2.81246
150.708	2.81386
150.851	2.81704
150.851	2.81704
150.928	2.81939
150.929	2.81689
151.012	2.81671
151.096	2.81647
151.096	2.81647
151.17	2.8086
151.305	2.79674
151.486	2.78242
151.696	2.7673
151.919	2.75333
152.14	2.74267
152.342	2.73764
152.342	2.73764
152.608	2.74293
152.794	2.74965
152.947	2.75652
152.947	2.75652
153.007	2.75683
153.066	2.75711
153.125	2.75731
153.125	2.75731
153.159	2.75921
153.16	2.76016
153.16	2.76107
153.16	2.76191
153.304	2.75245
153.444	2.74708
153.578	2.74299
153.578	2.74299
153.978	2.71153
154.292	2.68523
154.532	2.66408
154.712	2.64778
154.845	2.6357
154.943	2.62702
155.02	2.62068
155.089	2.61555
155.163	2.61038
155.163	2.61038
155.322	2.60514
155.45	2.59983
155.659	2.5932
155.659	2.5932
155.82	2.59612
155.984	2.59893
156.151	2.60166
156.151	2.60166
156.229	2.60113
156.312	2.60049
156.396	2.5998
156.396	2.5998
156.424	2.59625
156.47	2.59396
156.572	2.59097
156.639	2.59096
156.86	2.59296
157.082	2.59485
157.308	2.59668
157.308	2.59668
157.834	2.604
157.952	2.60227
158.087	2.6014
158.188	2.60047
158.375	2.62329
158.676	2.64352
159.223	2.65915
159.223	2.65915
159.794	2.65987
160.262	2.66236
160.839	2.66571
160.839	2.66571
160.939	2.67733
161.07	2.68661
161.344	2.69572
161.344	2.69572
161.502	2.71401
161.737	2.72911
162.058	2.7443
162.058	2.7443
162.173	2.75835
162.288	2.77192
162.404	2.78507
162.519	2.79781
162.634	2.81018
162.634	2.81018
162.834	2.81551
163.056	2.82005
163.273	2.82635
163.273	2.82635
163.391	2.82634
163.51	2.82633
163.628	2.82632
163.628	2.82632
163.705	2.82162
163.786	2.81681
163.869	2.81191
163.935	2.80709
163.936	2.80876
163.936	2.81035
163.936	2.8119
163.936	2.8119
164.221	2.81236
164.394	2.81311
164.605	2.81479
164.605	2.81479
164.719	2.8367
164.796	2.84664
164.905	2.85378
164.905	2.85378
165.343	2.8603
165.662	2.8674
165.885	2.87494
166.03	2.88279
166.12	2.89082
166.174	2.89892
166.214	2.90698
166.26	2.91488
166.333	2.92255
166.333	2.92255
166.473	2.9271
166.616	2.93157
166.761	2.93595
166.761	2.93595
166.879	2.93594
166.998	2.93593
167.116	2.93593
167.116	2.93593
167.288	2.9313
167.409	2.926
167.744	2.92148
167.744	2.92148
168.12	2.9257
168.453	2.93188
168.745	2.93946
169.001	2.94786
169.223	2.95655
169.415	2.96505
169.58	2.97288
169.721	2.97964
169.842	2.98492
169.842	2.98492
170.21	2.99108
170.56	2.99724
170.897	3.00338
171.224	3.00947
171.546	3.01549
171.867	3.02142
172.19	3.02725
172.52	3.03295
172.862	3.03852
173.218	3.04393
173.218	3.04393
173.477	3.05152
173.679	3.05699
173.901	3.06072
174.224	3.06307
174.723	3.06439
175.478	3.06499
175.478	3.06499
175.942	3.06718
176.382	3.06943
176.851	3.07109
176.851	3.07109
177.29	3.06634
177.633	3.06086
177.902	3.05479
178.118	3.04826
178.302	3.04144
178.477	3.03446
178.663	3.02752
178.663	3.02752
178.853	3.02346
179.195	3.01481
179.588	3.00442
179.931	2.99538
180.125	2.99101
180.125	2.99101
180.185	2.98856
180.325	2.98358
180.528	2.97654
180.772	2.96792
181.04	2.95822
181.31	2.94798
181.564	2.93778
181.781	2.92828
181.781	2.92828
182.126	2.92154
182.443	2.91171
182.715	2.90087
182.925	2.89126
182.925	2.89126
183.042	2.88165
183.158	2.87183
183.275	2.86177
183.392	2.85148
183.509	2.84094
183.628	2.83014
183.747	2.81906
183.747	2.81906
183.883	2.80927
184.022	2.79926
184.165	2.78901
184.311	2.77851
184.459	2.76775
184.61	2.75671
184.763	2.74538
184.917	2.73374
185.073	2.72178
185.23	2.70948
185.387	2.69681
185.544	2.68375
185.702	2.67028
185.859	2.65637
186.015	2.642
186.17	2.62712
186.323	2.6117
186.475	2.5957
186.475	2.5957
186.816	2.58947
187.219	2.58715
187.707	2.58379
187.707	2.58379
187.907	2.56702
188.106	2.54963
188.301	2.53156
188.493	2.51272
188.68	2.493
188.861	2.47228
189.033	2.45042
189.197	2.42727
189.35	2.40263
189.491	2.37627
189.62	2.34789
189.734	2.31716
189.833	2.28363
189.914	2.24675
189.914	2.24675
190.097	2.20133
190.282	2.15032
190.47	2.09235
190.47	2.09235
190.735	2.04232
191.052	1.98798
191.416	1.92863
191.822	1.86335
192.264	1.79097
192.737	1.70989
193.236	1.61779
193.755	1.51127
194.288	1.38481
194.288	1.38481
194.981	1.12251
195.858	0.766041
