Uv/Vis Spectrum: Parachlorophenol
Formula: C6H5ClO
CAS: 106-48-9
Melting point: 42.7
Boiling point: 22.0
Instrument: n.i.g.
Origin: INSTITUTE OF ENERGY PROBLEMS OF CHEMICAL PHYSICS, RAS
Wavelength (nm)	Logarithm epsilon
241.954	2.51354
242.152	2.50054
242.352	2.48688
242.558	2.47226
244.374	2.42648
244.542	2.42664
244.716	2.4268
244.892	2.42697
245.492	2.4392
245.661	2.44313
245.834	2.44674
246.009	2.44977
246.703	2.4504
246.841	2.45052
246.984	2.45065
247.128	2.45078
247.904	2.4721
248.952	2.49826
249.913	2.53602
250.953	2.57519
250.953	2.57519
251.128	2.60606
251.359	2.61378
251.777	2.63007
251.777	2.63007
251.777	2.62569
251.778	2.62088
251.778	2.61584
251.778	2.61584
252.035	2.63919
252.293	2.64812
252.551	2.65686
252.551	2.65686
252.97	2.69022
253.452	2.71826
254.004	2.73467
254.477	2.7588
254.663	2.76941
255.156	2.79392
256.226	2.84677
256.226	2.84677
256.835	2.88887
257.697	2.92472
258.278	2.96222
258.831	2.99306
259.473	3.01562
260.011	3.04062
260.368	3.06589
260.368	3.06589
260.997	3.09064
261.501	3.11474
262.027	3.13707
262.198	3.15271
262.855	3.17403
263.343	3.19736
263.688	3.21971
263.688	3.21971
264.086	3.2295
264.339	3.23959
264.453	3.25049
264.453	3.25049
264.852	3.26237
265.073	3.27374
265.257	3.2862
265.257	3.2862
265.34	3.28621
265.426	3.28622
265.516	3.28623
265.516	3.28623
265.696	3.2963
265.89	3.30595
265.934	3.30269
265.945	3.30199
265.958	3.30124
265.976	3.30042
266.184	3.32256
266.353	3.3364
266.408	3.33641
266.468	3.33642
266.529	3.33643
266.529	3.33643
266.882	3.35232
267.23	3.36779
267.57	3.38274
267.898	3.39711
268.211	3.41083
269.301	3.43605
269.57	3.44176
269.786	3.44545
269.826	3.44743
269.869	3.44934
269.917	3.45122
270.594	3.46099
270.995	3.46658
271.395	3.4721
271.796	3.47755
272.257	3.48478
272.525	3.49024
272.779	3.49672
273.235	3.50957
273.487	3.51863
273.709	3.52686
273.934	3.53493
274.163	3.5428
274.416	3.5503
274.594	3.55809
274.903	3.5676
275.434	3.57293
275.434	3.57293
275.484	3.58188
275.696	3.58867
276.015	3.59655
276.352	3.60249
276.543	3.6048
276.711	3.60659
277.083	3.60734
277.083	3.60734
277.603	3.60097
277.928	3.59389
278.18	3.58543
278.362	3.5778
278.538	3.57003
278.718	3.56209
278.9	3.55397
279.07	3.54815
279.277	3.53999
279.47	3.53178
279.525	3.52259
279.869	3.51997
280.11	3.51463
280.382	3.50871
280.575	3.50249
280.575	3.50249
280.69	3.50191
280.804	3.50128
280.919	3.50063
281.002	3.50019
281.742	3.50537
282.237	3.51535
282.538	3.52461
282.75	3.53284
282.973	3.53858
283.197	3.54423
283.421	3.54976
283.421	3.54976
283.562	3.55032
283.731	3.55054
284.073	3.5506
284.073	3.5506
284.37	3.54559
284.586	3.54011
284.78	3.5334
284.87	3.52478
284.967	3.52003
285.05	3.51322
285.189	3.49819
285.32	3.48827
285.411	3.47773
285.503	3.46688
285.601	3.45572
285.699	3.4474
285.821	3.43507
285.942	3.42235
286.064	3.40918
286.153	3.39767
286.214	3.387
286.279	3.37606
286.347	3.36484
286.437	3.35067
286.526	3.33747
286.618	3.32382
286.715	3.30965
286.815	3.29352
286.905	3.27936
286.997	3.26472
287.093	3.24958
287.182	3.23286
287.272	3.21605
287.363	3.19846
287.46	3.18008
287.549	3.16233
287.61	3.14178
287.676	3.12016
287.744	3.09728
287.926	3.07573
288.015	3.0521
288.104	3.0271
288.193	3.00058
288.292	2.97346
288.357	2.95637
288.49	2.93362
288.734	2.8839
288.998	2.84813
289.173	2.81072
289.352	2.76965
289.533	2.724
289.891	2.6773
290.046	2.63147
290.375	2.57163
290.683	2.50293
291.114	2.40467
291.418	2.34574
291.721	2.27714
292.025	2.19464
