Uv/Vis Spectrum: 1,4-Benzoquinone
Formula: C6H4O2
CAS: 106-51-4
Melting point: 115.7
Boiling point: sub
Instrument: Spectrophotometer SF-16
Origin: INSTITUTE OF ENERGY PROBLEMS OF CHEMICAL PHYSICS, RAS
Wavelength (nm)	Logarithm epsilon
220	3.67001
221	3.73
222	3.76
223	3.79
224	3.81
225	3.84
226	3.86
227	3.88
228	3.9
229	3.92
230	3.93
231	3.95
232	3.96
233	3.98
234	3.99
235	4.01
236	4.02
237	4.03
238	4.04
239	4.05
240	4.04999
241	4.05
242	4.06
243	4.06
244	4.06
245	4.06
246	4.07
247	4.07
248	4.07
249	4.06
250	4.04999
251	4.04
252	4.02
253	4.01
254	3.99
255	3.97
256	3.95
257	3.92
258	3.87
259	3.84
260	3.79
261	3.75
262	3.68
263	3.58
264	3.51
265	3.47
266	3.41
267	3.39
268	3.34
269	3.3
270	3.25
271	3.22
272	3.18
273	3.15
274	3.12
275	3.09
276	3.07
277	3.04
278	3.02
279	3.01
280	2.99
281	2.99
282	2.99
283	2.99
284	3
285	3.01
286	3.01
287	3.02
288	3.02
289	3.03
290	3.02999
291	3.03
292	3.03
293	3.02
294	3.01
295	3
296	3
297	2.98
298	2.96
299	2.94
300	2.92
301	2.89
302	2.87
303	2.85
304	2.82
305	2.79
306	2.75
307	2.73
308	2.67
309	2.65
310	2.57001
311	2.52
312	2.48
313	2.43
314	2.4
315	2.37
316	2.34
317	2.32
318	2.3
319	2.29
320	2.27
321	2.27
322	2.27
323	2.26
324	2.26
325	2.26
326	2.26
327	2.26
328	2.26
329	2.27
330	2.28001
331	2.28
332	2.29
333	2.3
334	2.3
335	2.31
336	2.31
337	2.32
338	2.33
339	2.33
340	2.34001
341	2.34
342	2.35
343	2.36
344	2.36
345	2.37
346	2.38
347	2.38
348	2.39
349	2.39
350	2.4
351	2.4
352	2.41
353	2.42
354	2.42
355	2.43
356	2.43
357	2.44
358	2.44
359	2.44
360	2.44
361	2.45
362	2.45
363	2.45
364	2.45
365	2.45
366	2.44
367	2.44
368	2.44
369	2.43
370	2.42999
371	2.43
372	2.42
373	2.42
374	2.41
375	2.41
376	2.4
377	2.39
378	2.38
379	2.38
380	2.36001
381	2.35
382	2.34
383	2.33
384	2.32
385	2.3
386	2.29
387	2.27
388	2.25
389	2.24
