Uv/Vis Spectrum: 1-Propyne, 3-bromo-
Formula: C3H3Br
CAS: 106-96-7
Boiling point: 82-85
Instrument: Zeiss PMQ II
Origin: INSTITUTE OF ENERGY PROBLEMS OF CHEMICAL PHYSICS, RAS
Wavelength (nm)	Logarithm epsilon
182.1	4.401
182.17	4.401
182.24	4.403
182.31	4.403
182.38	4.405
182.45	4.405
182.52	4.405
182.6	4.408
182.67	4.408
182.74	4.41
182.81	4.41
182.88	4.412
182.95	4.412
183.02	4.412
183.09	4.414
183.16	4.414
183.24	4.416
183.31	4.416
183.38	4.418
183.45	4.418
183.52	4.418
183.88	4.425
184.24	4.429
184.6	4.44
184.97	4.448
185.33	4.452
185.7	4.461
186.06	4.469
186.43	4.474
186.8	4.482
187.18	4.486
187.55	4.493
187.92	4.501
188.3	4.503
188.68	4.512
189.06	4.516
189.44	4.523
189.82	4.525
190.21	4.527
190.59	4.533
190.98	4.538
191.37	4.538
191.76	4.544
192.15	4.546
192.54	4.548
192.94	4.55
193.34	4.552
193.73	4.555
194.13	4.555
194.54	4.552
194.94	4.55
195.34	4.548
195.75	4.546
196.16	4.544
196.57	4.54
196.98	4.538
197.4	4.535
197.81	4.529
198.23	4.527
198.65	4.518
199.07	4.514
199.49	4.506
199.91	4.497
200.34	4.484
200.77	4.474
201.2	4.469
201.63	4.461
202.06	4.45
202.5	4.435
202.94	4.425
203.38	4.416
203.82	4.405
204.26	4.393
204.7	4.373
205.15	4.352
205.6	4.333
206.05	4.318
206.5	4.301
206.96	4.286
207.41	4.269
207.87	4.248
208.33	4.229
208.8	4.214
209.26	4.194
209.73	4.175
210.2	4.156
210.67	4.143
211.14	4.124
211.62	4.105
212.09	4.09
212.57	4.071
213.06	4.054
213.54	4.039
214.03	4.02
214.51	4.009
215	3.99
215.5	3.977
215.99	3.96
216.49	3.947
216.99	3.928
217.49	3.917
218	3.905
218.5	3.894
219.01	3.881
219.52	3.868
220.04	3.858
220.55	3.847
221.07	3.834
221.59	3.826
222.12	3.813
222.64	3.804
223.17	3.796
223.7	3.79
224.24	3.781
224.77	3.77
225.31	3.762
225.85	3.749
226.4	3.738
226.94	3.73
227.49	3.719
228.04	3.711
228.6	3.7
229.16	3.689
229.72	3.679
230.28	3.668
230.84	3.657
231.41	3.647
231.98	3.636
232.56	3.623
233.13	3.613
233.71	3.6
234.3	3.585
234.88	3.572
235.47	3.559
236.06	3.542
236.66	3.53
237.25	3.513
237.85	3.498
238.46	3.481
239.06	3.468
239.67	3.451
240.29	3.436
240.9	3.419
241.52	3.4
242.14	3.385
242.77	3.368
243.4	3.348
244.03	3.329
244.66	3.312
245.3	3.293
245.94	3.274
246.59	3.253
247.24	3.233
247.89	3.214
248.55	3.193
249.2	3.172
249.87	3.15
250.53	3.129
251.2	3.103
251.88	3.08
252.55	3.059
253.23	3.033
253.92	3.007
254.6	2.986
255.3	2.958
255.99	2.935
256.69	2.907
257.39	2.884
258.1	2.856
258.81	2.833
259.58	2.809
260.35	2.786
261.12	2.763
261.75	2.746
262.38	2.727
263.09	2.706
263.9	2.681
264.64	2.654
265.39	2.626
266.14	2.596
266.89	2.566
267.65	2.536
268.42	2.507
269.19	2.475
269.96	2.443
270.74	2.411
271.52	2.377
272.31	2.345
273.1	2.313
273.89	2.281
274.69	2.245
275.5	2.21
276.31	2.178
277.12	2.14
277.94	2.106
278.77	2.068
279.6	2.034
280.43	1.997
281.27	1.963
282.11	1.925
282.96	1.891
283.82	1.852
284.68	1.816
285.54	1.771
286.41	1.729
287.29	1.686
288.17	1.637
