Uv/Vis Spectrum: p-Aminotoluene
Formula: C7H9N
CAS: 106-49-0
Melting point: 44-45
Instrument: Beckman Model DU
Origin: INSTITUTE OF ENERGY PROBLEMS OF CHEMICAL PHYSICS, RAS
Wavelength (nm)	Logarithm epsilon
209	3.864
209.34	3.834
209.84	3.803
210.18	3.772
210.52	3.741
210.86	3.711
211.37	3.684
211.54	3.653
212.05	3.626
212.73	3.598
213.75	3.574
215.11	3.561
216.63	3.564
217.82	3.581
218.67	3.608
219.69	3.632
220.37	3.66
221.22	3.684
222.06	3.711
223.08	3.731
224.1	3.755
224.95	3.782
225.97	3.803
226.99	3.827
228.01	3.847
229.02	3.868
230.21	3.885
231.4	3.902
232.76	3.915
234.12	3.926
235.64	3.929
237	3.915
238.36	3.898
239.21	3.875
240.23	3.851
241.07	3.827
241.92	3.799
242.77	3.776
243.45	3.748
244.13	3.721
244.81	3.694
245.32	3.663
245.83	3.636
246.34	3.608
246.85	3.581
247.35	3.554
247.86	3.523
248.37	3.496
248.88	3.469
249.39	3.441
249.9	3.414
250.41	3.387
250.75	3.356
251.26	3.329
251.77	3.302
252.28	3.271
252.79	3.24
253.3	3.213
253.8	3.186
254.31	3.155
254.82	3.128
255.33	3.1
255.84	3.07
256.35	3.042
256.86	3.015
257.37	2.988
257.88	2.96
258.39	2.933
258.9	2.906
259.41	2.879
259.91	2.851
260.42	2.821
260.93	2.793
261.44	2.766
262.12	2.739
263.65	2.729
265.18	2.739
266.19	2.763
267.21	2.783
268.06	2.807
268.91	2.834
269.93	2.855
270.78	2.882
271.63	2.906
272.64	2.926
273.66	2.95
274.51	2.978
275.7	2.998
276.72	3.022
277.74	3.042
278.75	3.063
279.77	3.083
280.96	3.1
282.15	3.121
283.34	3.138
284.53	3.155
285.88	3.169
287.24	3.182
288.77	3.189
290.3	3.196
291.82	3.186
293.18	3.172
294.37	3.151
295.56	3.131
296.58	3.111
297.42	3.087
298.27	3.063
299.29	3.039
300.14	3.012
300.82	2.984
301.67	2.957
302.35	2.93
303.03	2.902
303.7	2.875
304.38	2.848
304.89	2.817
305.4	2.79
306.08	2.763
306.59	2.735
307.1	2.708
307.61	2.681
308.12	2.654
308.63	2.626
308.97	2.596
309.48	2.568
309.98	2.541
310.49	2.514
311	2.483
311.34	2.452
311.85	2.425
312.36	2.398
312.7	2.367
313.21	2.34
