Uv/Vis Spectrum: 1,3-Butadiene
Formula: C4H6
CAS: 106-99-0
Melting point: -109
Boiling point: -4.4
Instrument: Unicam SP 500
Origin: INSTITUTE OF ENERGY PROBLEMS OF CHEMICAL PHYSICS, RAS
Wavelength (nm)	Logarithm epsilon
200.619	4.32919
200.93	4.32919
202.345	4.29244
202.62	4.28936
202.931	4.28274
203.207	4.27642
203.483	4.2696
204.07	4.25937
204.346	4.25937
204.932	4.2527
205.208	4.2489
205.484	4.23817
205.795	4.23116
206.071	4.22359
206.658	4.2085
206.934	4.20476
207.21	4.20476
207.52	4.20051
208.935	4.17614
210.074	4.15509
210.384	4.15086
212.385	4.11371
212.661	4.10905
212.938	4.10435
216.664	4.03526
216.975	4.02897
217.251	4.02331
217.527	4.01757
218.113	3.99912
218.389	3.99229
218.7	3.99229
220.701	3.94545
220.977	3.93857
221.253	3.93857
222.116	3.91636
222.426	3.91636
222.978	3.90057
223.254	3.89294
224.117	3.87727
224.428	3.87727
225.29	3.85158
225.842	3.84195
226.153	3.84195
226.981	3.81401
227.567	3.80468
228.154	3.79514
228.43	3.79514
229.017	3.77415
229.569	3.76391
230.431	3.76391
231.294	3.73026
231.881	3.71892
232.433	3.70579
233.019	3.70579
233.882	3.69378
234.744	3.68143
235.883	3.65395
237.022	3.6404
238.747	3.6264
244.751	3.6264
245.924	3.6404
247.063	3.65395
247.925	3.6671
248.477	3.68143
249.34	3.69378
250.203	3.71892
250.789	3.73026
251.341	3.74132
251.928	3.75343
252.79	3.77415
253.653	3.79514
254.516	3.82428
254.792	3.82428
255.654	3.84195
257.38	3.88517
258.242	3.909
258.518	3.91636
259.657	3.95306
259.967	3.95971
260.243	3.95971
260.519	3.96626
261.382	3.99229
262.245	4.01757
262.521	4.02331
263.97	4.05756
264.246	4.0628
264.833	4.07877
265.695	4.09899
266.558	4.11832
266.834	4.12344
267.11	4.1324
267.697	4.14605
268.249	4.15928
268.559	4.16805
269.111	4.18063
269.422	4.1885
269.974	4.20051
270.284	4.2085
270.836	4.21998
271.147	4.22717
271.699	4.23817
271.975	4.2455
272.562	4.25937
272.838	4.26635
273.424	4.27642
273.7	4.28274
274.011	4.28936
274.287	4.29587
274.563	4.30192
274.873	4.30825
275.149	4.31413
275.426	4.32029
275.702	4.32636
276.012	4.332
276.288	4.33791
276.564	4.3434
276.875	4.34917
277.151	4.35485
277.427	4.36013
277.737	4.36568
278.013	4.37115
278.565	4.37876
278.876	4.38407
279.152	4.38932
279.739	4.39693
280.015	4.40172
280.877	4.41146
281.153	4.41407
282.016	4.4258
282.292	4.42833
282.603	4.43057
282.879	4.43279
283.155	4.43501
284.017	4.4443
284.328	4.44646
284.604	4.45101
284.88	4.45525
285.19	4.45761
287.192	4.47256
287.468	4.47256
288.054	4.47458
288.917	4.47885
291.47	4.47659
291.781	4.47659
292.057	4.47458
292.333	4.47256
292.609	4.47027
292.92	4.46823
293.195	4.46179
293.471	4.4597
293.782	4.45313
294.058	4.44646
294.334	4.44186
294.645	4.43749
294.921	4.43057
295.197	4.41869
295.507	4.40912
295.783	4.4041
296.059	4.3942
296.335	4.38407
296.646	4.3737
296.922	4.36826
297.198	4.3575
297.509	4.34917
297.785	4.3434
298.061	4.33514
298.371	4.32636
298.647	4.3174
298.923	4.3112
299.234	4.30192
299.51	4.29587
299.786	4.28625
300.062	4.27642
300.373	4.2696
300.649	4.25937
300.925	4.2527
301.235	4.24206
301.511	4.23468
301.787	4.22717
302.098	4.21998
302.374	4.2122
302.65	4.20051
302.926	4.19286
303.236	4.18458
303.512	4.17614
303.788	4.16805
304.099	4.15928
304.375	4.15086
304.651	4.14173
304.962	4.1324
305.238	4.12344
305.514	4.11371
305.824	4.10435
306.1	4.09899
306.376	4.08931
306.652	4.07877
307.239	4.0628
307.515	4.05226
307.825	4.04077
308.102	4.03526
308.378	4.02331
308.688	4.01757
308.964	4.00511
309.24	3.99912
309.827	3.97986
310.689	3.95306
311.828	3.91636
312.967	3.87727
313.277	3.85996
313.553	3.85158
313.829	3.85158
314.105	3.84195
314.416	3.8332
314.692	3.82428
314.968	3.81401
316.141	3.76391
316.417	3.76391
316.969	3.74132
317.28	3.73026
317.556	3.73026
318.142	3.69378
318.418	3.69378
319.005	3.6671
319.281	3.65395
319.557	3.65395
320.42	3.6101
320.696	3.6101
321.282	3.59508
321.869	3.56132
322.145	3.54448
322.421	3.54448
323.008	3.50636
323.284	3.50636
323.87	3.46714
324.146	3.44342
324.733	3.42119
325.009	3.42119
325.596	3.37298
325.872	3.37298
326.458	3.34332
327.01	3.28499
327.597	3.24837
328.149	3.21301
328.735	3.17451
329.322	3.12668
329.874	3.07924
330.461	3.07924
331.013	3.02597
331.599	2.95701
332.462	2.79844
332.738	2.79844
