Uv/Vis Spectrum: 1,4-Benzenediamine
Formula: C6H8N2
CAS: 106-50-3
Melting point: 141.5-142
Instrument: Unicam SP 500
Origin: INSTITUTE OF ENERGY PROBLEMS OF CHEMICAL PHYSICS, RAS
Wavelength (nm)	Logarithm epsilon
192.28	4.442
192.36	4.444
192.44	4.444
192.52	4.444
192.6	4.446
192.68	4.446
192.77	4.446
192.85	4.446
192.93	4.448
193.25	4.455
193.74	4.466
194.23	4.478
194.72	4.489
195.21	4.498
195.71	4.508
196.21	4.515
196.71	4.517
197.22	4.519
197.73	4.519
198.24	4.517
198.75	4.51
199.26	4.5
199.78	4.487
200.3	4.472
200.83	4.444
201.35	4.421
201.88	4.395
202.41	4.367
202.95	4.335
203.49	4.309
204.03	4.275
204.57	4.233
205.12	4.196
205.66	4.156
206.22	4.113
206.81	4.077
207.3	4.045
207.89	4.006
208.45	3.959
209.02	3.905
209.59	3.856
210.16	3.803
210.74	3.76
211.32	3.719
211.9	3.685
212.49	3.651
213.08	3.623
213.67	3.593
214.27	3.574
214.87	3.563
215.45	3.556
216.07	3.555
216.67	3.558
217.39	3.566
217.99	3.578
218.55	3.589
219.17	3.601
219.77	3.614
220.39	3.628
221.02	3.644
221.55	3.656
222.24	3.671
222.97	3.685
223.62	3.698
224.27	3.717
224.93	3.73
225.59	3.749
226.25	3.766
226.92	3.779
227.59	3.799
228.27	3.811
228.95	3.824
229.63	3.841
230.32	3.854
231.02	3.871
231.71	3.882
232.41	3.893
233.12	3.903
233.83	3.914
234.54	3.925
235.26	3.933
235.98	3.942
236.71	3.948
237.44	3.955
238.18	3.961
238.92	3.965
239.66	3.97
240.41	3.974
241.17	3.974
241.93	3.974
242.69	3.972
243.46	3.965
244.23	3.961
245.01	3.95
245.8	3.942
246.58	3.929
247.38	3.912
248.18	3.899
248.98	3.88
249.79	3.863
250.61	3.841
251.43	3.82
252.25	3.794
253.08	3.764
253.92	3.737
254.76	3.704
255.61	3.672
256.46	3.632
257.32	3.585
258.18	3.538
259.05	3.495
259.93	3.452
260.81	3.409
261.54	3.371
262.39	3.331
263.49	3.281
264.4	3.241
265.23	3.208
266.23	3.161
267.16	3.114
268.09	3.072
269.03	3.033
269.98	2.999
270.93	2.965
271.89	2.931
272.85	2.905
273.83	2.886
274.8	2.875
275.79	2.873
276.78	2.875
277.78	2.877
278.83	2.885
279.86	2.899
280.83	2.916
281.87	2.93
282.97	2.95
283.94	2.965
285.17	2.988
286.4	3.007
287.24	3.021
288.15	3.039
289.29	3.061
290.38	3.08
291.48	3.102
292.59	3.123
293.71	3.142
294.84	3.161
295.97	3.181
297.12	3.196
298.27	3.213
299.44	3.226
300.61	3.241
301.79	3.251
302.98	3.262
304.18	3.266
305.39	3.273
306.6	3.273
307.83	3.27
309.07	3.266
310.32	3.258
311.58	3.247
312.85	3.232
314.12	3.219
315.41	3.198
316.71	3.168
318.03	3.14
319.35	3.108
320.68	3.067
322.02	3.027
323.38	2.975
324.75	2.913
326.12	2.854
327.39	2.803
328.87	2.745
330.14	2.691
331.47	2.631
333.02	2.552
334.65	2.46
336.11	2.364
337.59	2.261
339.08	2.172
340.58	2.075
342.1	1.988
343.63	1.9
345.17	1.808
346.73	1.716
348.3	1.607
349.88	1.52
