Uv/Vis Spectrum: p-Bromoaniline
Formula: C6H6BrN
CAS: 106-40-1
Melting point: 66.4
Boiling point: dec
Instrument: n.i.g.
Origin: INSTITUTE OF ENERGY PROBLEMS OF CHEMICAL PHYSICS, RAS
Wavelength (nm)	Logarithm epsilon
226.975	3.83354
227.246	3.84056
227.374	3.84386
227.518	3.84758
227.898	3.86113
228.042	3.86445
228.169	3.86815
228.297	3.87146
228.438	3.87841
228.565	3.88172
228.693	3.88542
228.962	3.89568
229.089	3.89899
229.486	3.91255
229.632	3.91262
230.031	3.92294
230.159	3.92665
233.204	4.00917
233.473	4.01943
233.601	4.02273
233.745	4.02604
234.002	4.02981
234.149	4.02989
234.548	4.04021
234.806	4.04358
234.95	4.04729
235.077	4.0506
235.205	4.0539
235.604	4.06422
235.75	4.0643
235.878	4.06801
236.006	4.07131
236.277	4.07833
236.407	4.07839
236.806	4.08872
236.936	4.08878
237.208	4.0954
237.482	4.09918
237.743	4.09931
240.848	4.12758
241.258	4.12455
245.368	4.0792
245.501	4.07603
246.046	4.06618
246.592	4.05632
246.741	4.05316
246.874	4.04958
247.007	4.0464
247.702	4.03298
248.403	4.01308
248.538	4.00666
248.948	4.00322
249.084	3.99681
249.233	3.99324
249.502	3.98325
249.651	3.98008
249.784	3.97691
250.069	3.96693
250.202	3.96335
250.335	3.96017
250.487	3.95336
250.62	3.95019
250.756	3.94337
250.889	3.9402
251.038	3.93703
251.171	3.93345
251.307	3.92704
251.456	3.92347
251.592	3.91706
251.728	3.91024
251.877	3.90708
252.146	3.89709
252.298	3.89028
252.431	3.8867
252.566	3.88028
252.716	3.87671
252.851	3.8703
252.987	3.86348
253.139	3.85668
253.272	3.8535
253.408	3.84668
253.56	3.84028
253.829	3.83029
253.978	3.82672
254.117	3.81666
254.25	3.81349
254.402	3.80668
254.537	3.80027
254.673	3.79345
254.958	3.78346
255.094	3.77665
255.249	3.7666
255.381	3.76342
255.517	3.75661
255.653	3.74979
255.805	3.74339
255.941	3.73657
256.077	3.72975
256.364	3.71653
256.5	3.70971
256.652	3.70331
256.788	3.69649
256.926	3.68643
257.075	3.68327
257.214	3.67321
257.349	3.6664
257.502	3.65958
257.637	3.65317
257.773	3.64635
257.928	3.63631
258.064	3.62949
258.202	3.61943
258.351	3.61627
258.49	3.60621
258.625	3.59939
258.78	3.58935
258.916	3.58253
259.054	3.57247
259.206	3.56607
259.345	3.55601
259.481	3.5492
259.63	3.54603
259.771	3.53233
259.907	3.52592
260.075	3.49887
260.477	3.4857
260.631	3.47565
260.767	3.46884
260.906	3.45878
261.058	3.45197
261.196	3.44191
261.335	3.43186
261.487	3.42505
261.628	3.41175
261.764	3.40494
261.918	3.39489
262.057	3.38483
262.195	3.37478
262.353	3.36149
262.488	3.35467
262.627	3.34462
262.781	3.33457
262.917	3.32816
263.058	3.31446
263.213	3.30441
263.351	3.29435
263.487	3.28754
263.642	3.27749
263.781	3.26743
263.919	3.25738
264.074	3.24733
264.209	3.24091
264.345	3.2341
264.5	3.22405
264.638	3.21399
264.774	3.20717
264.926	3.20077
265.062	3.19395
265.197	3.18714
265.333	3.18072
265.485	3.17391
265.623	3.16386
265.759	3.15704
265.911	3.15023
266.044	3.14706
266.18	3.14024
266.332	3.13384
266.468	3.12702
266.604	3.1202
266.753	3.11704
266.886	3.11386
267.022	3.10704
267.307	3.09706
267.592	3.08708
267.724	3.0839
267.858	3.08033
268.01	3.07392
268.143	3.07034
268.276	3.06717
268.561	3.05719
268.694	3.05401
268.843	3.05044
268.976	3.04727
269.255	3.04417
269.391	3.03735
269.524	3.03377
269.804	3.03067
269.937	3.02749
270.217	3.02399
270.48	3.02088
271.302	3.01116
271.582	3.00806
272.399	3.00482
272.679	3.00172
272.942	2.99861
273.222	2.99511
275.922	3.00009
276.327	3.00354
276.601	3.00691
277.54	3.01426
277.684	3.01758
277.814	3.01764
278.349	3.02155
279.022	3.03525
279.283	3.03538
279.687	3.03882
279.959	3.04584
280.089	3.04591
280.493	3.04975
280.767	3.05313
281.042	3.05651
281.299	3.06028
281.571	3.06689
281.701	3.06696
281.973	3.07398
282.103	3.07404
282.507	3.07748
282.781	3.08127
283.18	3.09159
283.311	3.09165
283.715	3.09509
284.12	3.09854
284.391	3.10555
284.652	3.10568
285.203	3.1092
285.33	3.11291
285.605	3.11628
285.863	3.11965
286.134	3.12667
286.669	3.13018
287.073	3.13402
287.752	3.14084
288.691	3.14819
289.503	3.15184
290.187	3.15218
290.442	3.15919
290.846	3.16263
292.602	3.16715
294.38	3.16439
295.738	3.15858
296.148	3.15514
296.427	3.15204
297.097	3.14913
297.377	3.14563
297.64	3.14252
297.92	3.13942
298.053	3.13584
298.61	3.13287
298.742	3.1297
299.022	3.1262
299.435	3.11992
299.568	3.11634
299.978	3.1133
300.113	3.10649
300.393	3.10339
300.672	3.10028
300.806	3.09671
301.351	3.08685
301.5	3.08369
301.633	3.08051
301.897	3.077
302.046	3.07383
302.597	3.0571
302.877	3.054
303.01	3.05042
303.295	3.04043
303.428	3.03726
303.707	3.03416
303.843	3.02734
303.976	3.02417
304.256	3.02066
304.807	3.00433
304.959	2.99752
305.222	2.99441
305.377	2.98436
305.789	2.97769
305.922	2.97451
306.058	2.96769
306.207	2.96453
306.343	2.95771
306.606	2.9546
306.886	2.9511
307.166	2.948
307.304	2.93794
307.727	2.9179
307.86	2.91473
308.14	2.91122
308.276	2.9044
308.566	2.88794
308.707	2.87424
309.695	2.84112
310.113	2.82796
310.382	2.81797
310.532	2.8144
310.803	2.80117
310.952	2.798
311.224	2.78437
311.359	2.77796
311.511	2.77115
311.644	2.76797
311.932	2.75435
312.065	2.75117
312.204	2.74112
312.353	2.73755
312.489	2.73113
312.625	2.72432
312.774	2.72115
312.912	2.71109
313.045	2.70752
313.2	2.69747
313.336	2.69105
313.471	2.68424
313.623	2.67743
313.756	2.67426
314.044	2.66103
314.18	2.65422
314.316	2.6474
314.467	2.64099
314.606	2.63094
314.739	2.62736
315.027	2.61414
