Uv/Vis Spectrum: p-Chloroaniline
Formula: C6H6ClN
CAS: 106-47-8
Melting point: 72.5
Boiling point: 232
Instrument: n.i.g.
Origin: INSTITUTE OF ENERGY PROBLEMS OF CHEMICAL PHYSICS, RAS
Wavelength (nm)	Logarithm epsilon
337.316	0.830999
336.769	0.896008
336.313	0.949907
335.935	0.994185
335.621	1.03032
335.356	1.05978
335.127	1.08407
334.92	1.10464
334.722	1.12298
334.519	1.14058
334.297	1.15891
334.043	1.17944
334.043	1.17944
333.845	1.18576
333.648	1.20031
333.363	1.23363
332.9	1.29623
332.172	1.39864
332.172	1.39864
331.832	1.41223
331.483	1.42608
331.117	1.44005
331.117	1.44005
331.067	1.45311
331.008	1.46643
330.931	1.47987
330.218	1.50785
330.113	1.52804
329.99	1.54822
329.858	1.56841
329.212	1.67803
329.184	1.70145
329.112	1.66596
328.973	1.75368
328.524	1.85218
328.524	1.85218
327.812	1.93314
327.271	1.9946
326.866	2.04003
326.563	2.0729
326.33	2.09667
326.132	2.11483
325.938	2.13082
325.715	2.14813
325.715	2.14813
325.56	2.15525
325.354	2.17159
325.077	2.19718
324.708	2.23205
324.227	2.27621
323.616	2.3297
322.855	2.39253
321.928	2.46474
321.928	2.46474
320.943	2.52024
320.194	2.56217
319.584	2.5952
319.02	2.62401
318.411	2.65327
317.668	2.68764
316.702	2.7318
316.702	2.7318
316.358	2.73698
316.074	2.73942
315.609	2.74121
315.609	2.74121
315.364	2.76139
315.102	2.78156
314.833	2.80172
314.833	2.80172
313.963	2.82351
312.516	2.86879
310.331	2.93418
310.331	2.93418
309.527	2.95396
308.067	2.99373
305.115	3.06598
305.115	3.06598
304.381	3.07111
303.65	3.07648
302.922	3.08199
302.922	3.08199
302.401	3.0937
301.882	3.10542
301.364	3.11714
301.364	3.11714
299.96	3.12372
298.554	3.13042
297.154	3.13738
297.154	3.13738
296.064	3.13724
294.983	3.1371
293.909	3.13696
293.909	3.13696
293.062	3.13068
292.205	3.12439
291.346	3.11811
291.346	3.11811
290.014	3.09547
288.681	3.0727
287.353	3.04968
287.353	3.04968
287.23	3.04349
287.101	3.0373
286.958	3.03111
285.704	3.01243
285.525	3.00527
285.352	2.99837
285.193	2.9916
285.193	2.9916
284.89	2.98891
284.595	2.98648
284.313	2.98418
284.313	2.98418
284.133	2.97254
283.97	2.96713
283.686	2.96333
283.686	2.96333
282.725	2.93571
282.25	2.91862
281.852	2.89743
279.543	2.82977
279.456	2.8288
279.376	2.82809
279.309	2.82749
279.309	2.82749
278.021	2.78635
277.34	2.76138
274.223	2.69566
273.467	2.68952
272.592	2.68174
272.147	2.67943
271.23	2.68451
270.313	2.68983
269.39	2.69528
269.39	2.69528
267.58	2.76025
267.117	2.78134
267.117	2.78134
266.305	2.88638
265.868	2.94077
265.652	2.96195
265.507	2.96736
265.507	2.96736
264.899	3.02822
264.428	3.07526
264.055	3.11188
263.741	3.1415
263.45	3.16752
263.146	3.19335
262.79	3.22239
262.347	3.25805
262.347	3.25805
262.137	3.26812
261.927	3.27818
261.718	3.28825
261.718	3.28825
261.424	3.31908
261.125	3.35004
260.815	3.38124
260.815	3.38124
260.577	3.38571
260.327	3.3903
260.072	3.39514
260.072	3.39514
260.01	3.4075
259.936	3.41997
259.856	3.4327
259.113	3.46287
258.834	3.47029
258.555	3.47795
258.277	3.48574
258.277	3.48574
258.098	3.4971
257.919	3.5087
257.741	3.52043
257.741	3.52043
257.124	3.53972
256.799	3.55269
256.486	3.5623
256.486	3.5623
256.328	3.57331
255.801	3.59398
254.819	3.6344
254.819	3.6344
254.719	3.64113
254.62	3.64799
254.52	3.6551
254.52	3.6551
253.877	3.67135
253.144	3.69668
251.7	3.7528
251.7	3.7528
251.478	3.75501
251.246	3.75721
251.01	3.75941
251.01	3.75941
250.817	3.76852
250.619	3.77788
250.411	3.78736
250.411	3.78736
250.026	3.79404
249.632	3.80085
249.234	3.80791
248.252	3.82681
247.996	3.83557
247.739	3.84409
247.484	3.85248
247.484	3.85248
246.655	3.86467
245.832	3.87686
245.014	3.88905
245.014	3.88905
244.413	3.89228
243.825	3.89539
243.245	3.89825
243.245	3.89825
242.382	3.89809
241.531	3.89793
240.696	3.89777
240.696	3.89777
239.22	3.88362
238.55	3.87549
238.102	3.8664
238.102	3.8664
237.503	3.86229
237.024	3.85671
236.542	3.85262
236.542	3.85262
236.541	3.85711
236.372	3.85708
236.21	3.83523
236.199	3.85704
236.032	3.8009
236.017	3.85701
235.772	3.81818
235.657	3.79987
235.51	3.80529
235.282	3.79909
234.909	3.79843
234.909	3.79843
234.73	3.79519
234.56	3.79221
234.395	3.78935
234.395	3.78935
233.814	3.76837
233.655	3.71682
233.289	3.74864
233	3.71764
232.873	3.73742
232.873	3.73742
232.839	3.73348
232.815	3.72955
232.795	3.72562
232.35	3.71821
231.703	3.71866
231.703	3.71866
231.645	3.71376
231.591	3.70912
231.546	3.7046
231.546	3.7046
230.85	3.69431
227.821	3.6647
226.674	3.65589
225.544	3.6472
225.296	3.6449
224.778	3.64479
224.253	3.64467
223.726	3.64455
221.03	3.66526
220.603	3.66741
220.17	3.66955
219.734	3.6717
219.734	3.6717
219.105	3.69036
218.576	3.70704
218.158	3.7179
218.158	3.7179
218.045	3.73425
217.946	3.7415
217.926	3.71784
217.855	3.71687
217.784	3.71615
217.777	3.74586
217.713	3.71555
