Uv/Vis Spectrum: Acetic acid, hydrazide
Formula: C2H6N2O
CAS: 1068-57-1
Melting point: 67
Boiling point: 137/ 25 mm
Instrument: n.i.g.
Origin: INSTITUTE OF ENERGY PROBLEMS OF CHEMICAL PHYSICS, RAS
Wavelength (nm)	Logarithm epsilon
229.33	2.408
230.56	2.352
231.81	2.295
233.07	2.246
234.08	2.19
234.85	2.145
235.88	2.07
236.73	2.013
237.71	1.95
238.5	1.894
239.29	1.83
240.2	1.764
240.9	1.71
241.51	1.655
242.26	1.584
242.93	1.52
243.63	1.457
244.21	1.4
245.02	1.33
245.86	1.267
246.71	1.203
247.56	1.14
248.42	1.076
249.29	1.02
250.16	0.956
251.03	0.893
251.92	0.83
252.97	0.763
254	0.71
255.12	0.649
256.12	0.597
257.35	0.541
258.9	0.491
260.78	0.442
