Uv/Vis Spectrum: 2-Propenal
Formula: C3H4O
CAS: 107-02-8
Instrument: Unicam SP 700
Origin: INSTITUTE OF ENERGY PROBLEMS OF CHEMICAL PHYSICS, RAS
Wavelength (nm)	Logarithm epsilon
191.68	3.733
191.91	3.752
192.15	3.771
192.39	3.791
192.71	3.808
192.94	3.827
193.18	3.846
193.5	3.863
193.75	3.883
194.15	3.9
194.47	3.917
194.8	3.934
195.2	3.949
195.61	3.966
196.02	3.981
196.35	3.998
196.94	4.011
197.52	4.024
198.11	4.034
198.78	4.043
199.46	4.049
200.06	4.06
200.83	4.06
201.61	4.064
202.4	4.062
203.2	4.056
203.91	4.049
204.71	4.043
205.43	4.032
206.07	4.022
206.98	3.987
207.07	3.985
207.16	3.985
207.26	3.983
207.35	3.981
207.44	3.979
207.53	3.977
207.63	3.977
207.72	3.974
207.81	3.972
207.9	3.97
208.37	3.957
208.83	3.94
209.3	3.923
209.77	3.895
210.24	3.872
210.72	3.84
211.2	3.808
211.68	3.773
212.16	3.739
212.64	3.701
213.13	3.662
213.61	3.626
214.1	3.577
214.6	3.523
215.09	3.455
215.59	3.397
216.09	3.314
216.59	3.207
217.09	3.143
217.6	3.07
218.11	3.006
218.62	2.922
219.13	2.843
219.65	2.79
220.16	2.736
220.69	2.689
221.21	2.638
221.73	2.589
222.26	2.548
222.79	2.495
223.33	2.461
223.86	2.424
224.4	2.392
224.94	2.354
225.48	2.322
226.03	2.287
226.58	2.245
227.13	2.208
227.68	2.176
228.24	2.127
228.8	2.071
229.36	2.005
229.93	1.954
230.5	1.9
231.07	1.845
231.64	1.785
232.22	1.725
232.8	1.674
233.38	1.62
233.96	1.571
234.55	1.522
235.14	1.466
235.74	1.404
236.33	1.334
236.93	1.252
237.54	1.167
238.14	1.071
238.75	0.957
239.36	0.885
239.98	0.825
240.6	0.778
241.22	0.731
241.85	0.677
242.47	0.626
243.11	0.583
243.74	0.542
244.38	0.508
245.02	0.476
247.23	0.431
248.28	0.421
249.47	0.414
250.68	0.414
251.9	0.416
252.85	0.427
253.82	0.44
254.79	0.453
255.62	0.465
256.75	0.472
257.88	0.478
259.03	0.489
260.04	0.502
260.77	0.517
261.79	0.53
263.12	0.532
264.46	0.534
265.82	0.534
267.19	0.532
268.57	0.534
269.66	0.547
270.6	0.56
271.86	0.57
273.13	0.581
274.25	0.592
275.55	0.6
276.69	0.611
277.68	0.624
278.68	0.637
279.68	0.649
280.69	0.664
281.87	0.677
282.9	0.69
283.76	0.705
284.8	0.718
285.67	0.733
286.55	0.748
287.79	0.758
289.21	0.767
290.47	0.778
291.56	0.79
292.48	0.808
293.58	0.823
294.51	0.84
295.44	0.857
296.38	0.872
297.32	0.887
298.27	0.902
299.04	0.919
300.02	0.937
301.15	0.953
301.94	0.966
302.92	0.983
303.71	1
304.3	1.019
305.3	1.036
306.1	1.054
307.31	1.068
308.32	1.086
309.55	1.101
310.58	1.118
311.62	1.133
313.08	1.145
314.36	1.159
316	1.171
317.21	1.182
318.51	1.194
319.73	1.205
321.05	1.218
322.6	1.231
323.95	1.244
325.4	1.252
326.96	1.258
328.23	1.261
328.95	1.262
329.31	1.262
329.6	1.263
329.89	1.263
330.18	1.264
330.54	1.264
331.12	1.266
331.59	1.267
332.06	1.268
332.55	1.27
332.96	1.272
333.44	1.276
333.93	1.282
334.39	1.289
334.82	1.294
335.36	1.299
335.7	1.303
336.23	1.307
336.81	1.308
337.31	1.307
337.78	1.302
338.23	1.293
338.76	1.287
339.26	1.28
339.67	1.275
340.25	1.272
340.74	1.269
341.25	1.267
341.69	1.266
342.2	1.264
342.75	1.263
343.25	1.263
343.79	1.264
344.26	1.267
344.77	1.269
345.28	1.272
345.79	1.272
346.31	1.272
346.82	1.272
347.33	1.273
347.73	1.276
348.24	1.28
348.64	1.284
349.07	1.287
349.47	1.29
349.87	1.292
350.16	1.293
350.47	1.291
350.77	1.287
351	1.282
351.52	1.261
352.06	1.242
352.59	1.22
353.12	1.199
353.66	1.173
354.19	1.15
354.73	1.137
355.27	1.12
355.81	1.116
356.36	1.109
356.9	1.107
357.45	1.098
358	1.09
358.55	1.088
359.1	1.088
359.65	1.09
360.21	1.096
360.77	1.096
361.32	1.09
361.88	1.086
362.45	1.079
363.01	1.077
363.58	1.077
364.14	1.075
364.71	1.077
365.28	1.086
365.86	1.094
366.43	1.103
367.02	1.104
367.59	1.094
367.91	1.084
368.17	1.064
368.37	1.035
368.75	1.004
369.21	0.98
369.92	0.968
370.5	0.964
371.09	0.959
371.43	0.948
371.69	0.929
371.93	0.904
372.28	0.88
372.87	0.857
373.47	0.831
374.07	0.808
374.67	0.793
375.25	0.77
375.88	0.741
376.48	0.703
377.02	0.683
377.7	0.679
378.31	0.681
378.93	0.684
379.55	0.684
380.16	0.681
380.78	0.679
381.41	0.671
382.03	0.662
382.66	0.643
383.29	0.639
383.92	0.652
384.55	0.664
385.19	0.679
385.82	0.69
386.46	0.694
387.1	0.694
387.75	0.692
388.39	0.688
389.04	0.679
389.69	0.658
390.34	0.609
390.99	0.538
391.39	0.463
391.73	0.395
392.16	0.313
392.76	0.204
