Uv/Vis Spectrum: 2-Propen-1-amine
Formula: C3H7N
CAS: 107-11-9
Boiling point: 53-54
Instrument: Zeiss PMQ II
Origin: INSTITUTE OF ENERGY PROBLEMS OF CHEMICAL PHYSICS, RAS
Wavelength (nm)	Logarithm epsilon
182.96	3.931
183.31	3.916
183.6	3.899
183.89	3.882
184.25	3.865
184.54	3.848
184.91	3.833
185.27	3.816
185.64	3.799
186.01	3.782
186.31	3.765
186.6	3.748
186.98	3.73
187.27	3.713
187.58	3.696
187.88	3.679
188.18	3.662
188.48	3.645
188.79	3.628
189.17	3.611
189.47	3.594
189.86	3.579
190.24	3.562
190.63	3.547
191.02	3.532
191.41	3.517
191.88	3.502
192.28	3.487
192.75	3.472
193.31	3.459
193.87	3.447
194.43	3.434
194.92	3.421
195.49	3.41
196.06	3.398
196.64	3.387
197.3	3.376
197.97	3.366
198.64	3.355
199.32	3.344
200	3.334
200.69	3.325
201.46	3.319
202.16	3.31
202.86	3.302
203.57	3.293
204.37	3.289
205.08	3.28
205.8	3.272
206.53	3.261
207.26	3.25
208	3.24
208.65	3.229
209.3	3.216
209.87	3.201
210.53	3.188
211.19	3.176
211.67	3.161
212.24	3.148
212.82	3.135
213.31	3.121
213.89	3.103
214.31	3.089
214.74	3.072
215.08	3.058
215.31	3.048
215.57	3.033
215.67	3.028
215.77	3.024
215.87	3.022
215.97	3.018
216.07	3.016
216.17	3.011
216.27	3.007
216.37	3.005
216.47	3.001
216.54	2.996
216.73	2.984
216.98	2.97
217.27	2.956
217.57	2.941
217.88	2.926
218.18	2.913
218.49	2.9
218.79	2.886
219.1	2.871
219.41	2.858
219.72	2.843
220.03	2.83
220.34	2.815
220.65	2.802
220.96	2.787
221.28	2.775
221.59	2.76
221.91	2.745
222.22	2.732
222.54	2.717
222.86	2.704
223.18	2.681
223.5	2.661
223.82	2.636
224.14	2.621
224.46	2.6
224.78	2.58
225.11	2.559
225.43	2.538
225.76	2.512
226.09	2.493
226.42	2.469
226.74	2.448
227.07	2.425
227.41	2.397
227.74	2.371
228.07	2.346
228.4	2.312
228.74	2.284
229.07	2.254
229.41	2.224
229.75	2.198
230.09	2.171
230.43	2.141
230.77	2.12
231.11	2.09
231.45	2.066
231.8	2.041
232.14	2.015
232.49	1.989
232.84	1.951
233.18	1.925
233.53	1.904
233.88	1.876
234.23	1.853
234.59	1.823
234.94	1.802
235.29	1.78
235.65	1.755
236.01	1.731
236.36	1.708
236.72	1.686
237.08	1.659
237.44	1.637
237.8	1.605
238.17	1.582
238.53	1.558
238.9	1.531
239.26	1.507
239.63	1.479
240	1.456
240.37	1.428
240.74	1.403
241.11	1.375
241.49	1.351
241.86	1.324
242.24	1.3
242.61	1.27
242.99	1.238
243.37	1.208
243.7	1.177
244.09	1.141
244.43	1.108
244.65	1.083
244.9	1.061
245.29	1.034
245.8	1.008
