Uv/Vis Spectrum: 5H-Benzocycloheptene,6,7,8,9-tetrahydro-
Formula: C11H14
CAS: 1075-16-7
Instrument: Jarrell-Ash Robin Vacuum UV
Origin: INSTITUTE OF ENERGY PROBLEMS OF CHEMICAL PHYSICS, RAS
Wavelength (nm)	Logarithm epsilon
238.13	1.812
238.25	1.815
238.36	1.816
238.48	1.821
238.59	1.823
238.71	1.825
238.83	1.829
238.94	1.831
239.06	1.833
239.17	1.838
239.29	1.839
239.4	1.845
239.52	1.846
239.64	1.851
239.75	1.853
239.87	1.858
239.99	1.859
240.1	1.865
240.22	1.866
240.34	1.871
240.45	1.874
240.57	1.877
240.69	1.881
240.81	1.885
240.92	1.887
241.04	1.893
241.16	1.894
241.28	1.895
241.4	1.899
241.51	1.901
241.63	1.905
241.75	1.907
241.87	1.911
241.99	1.913
242.11	1.916
242.23	1.919
242.34	1.922
242.46	1.923
242.58	1.928
242.7	1.93
242.82	1.933
242.94	1.936
243.06	1.939
243.18	1.94
243.3	1.944
243.42	1.946
243.54	1.949
243.66	1.951
243.78	1.953
243.9	1.956
244.02	1.957
244.14	1.96
244.26	1.962
244.39	1.965
244.51	1.967
244.63	1.968
244.75	1.971
244.87	1.974
244.99	1.977
245.11	1.978
245.24	1.982
245.36	1.983
245.48	1.987
245.6	1.989
245.72	1.992
245.85	1.995
245.97	1.997
246.09	2
246.22	2.002
246.34	2.006
246.46	2.009
246.58	2.012
246.71	2.015
246.83	2.018
246.95	2.021
247.08	2.026
247.2	2.028
247.33	2.031
247.45	2.034
247.57	2.039
247.7	2.042
247.82	2.046
247.95	2.049
248.07	2.053
248.2	2.057
248.32	2.06
248.45	2.067
248.57	2.071
248.7	2.073
248.82	2.078
248.95	2.084
249.07	2.088
249.2	2.092
249.33	2.095
249.45	2.099
249.58	2.104
249.7	2.108
249.83	2.114
249.96	2.118
250.08	2.122
250.21	2.126
250.34	2.13
250.47	2.132
250.59	2.136
250.72	2.139
250.85	2.143
250.98	2.146
251.1	2.15
251.23	2.153
251.36	2.156
251.49	2.159
251.62	2.163
251.74	2.166
251.87	2.17
252	2.175
252.13	2.178
252.26	2.182
252.39	2.185
252.52	2.19
252.65	2.194
252.78	2.2
252.9	2.209
253.03	2.214
253.16	2.22
253.29	2.228
253.42	2.231
253.55	2.234
253.69	2.239
253.82	2.242
253.95	2.246
254.08	2.25
254.21	2.255
254.34	2.257
254.47	2.261
254.6	2.265
254.73	2.267
254.86	2.268
255	2.27
255.13	2.27
255.26	2.272
255.39	2.274
255.52	2.275
255.66	2.277
255.79	2.277
255.92	2.28
256.06	2.281
256.19	2.283
256.32	2.284
256.45	2.285
256.59	2.287
256.72	2.288
256.86	2.289
256.99	2.291
257.12	2.294
257.26	2.296
257.39	2.3
257.53	2.304
257.66	2.306
257.79	2.308
257.93	2.312
258.06	2.314
258.2	2.315
258.33	2.317
258.47	2.319
258.61	2.321
258.74	2.324
258.88	2.327
259.01	2.333
259.15	2.34
259.29	2.348
259.42	2.352
259.56	2.356
259.69	2.359
259.83	2.362
259.97	2.365
260.11	2.368
260.24	2.37
260.38	2.374
260.52	2.377
260.66	2.381
260.79	2.383
260.93	2.386
261.07	2.389
261.21	2.392
261.35	2.396
261.48	2.399
261.62	2.4
261.76	2.403
261.9	2.406
262.04	2.408
262.18	2.41
262.32	2.407
262.46	2.403
262.6	2.401
262.74	2.397
262.88	2.396
263.09	2.384
263.23	2.381
263.37	2.377
263.51	2.372
263.65	2.365
263.79	2.36
263.93	2.358
264.07	2.344
264.21	2.338
264.36	2.335
264.5	2.332
264.64	2.331
264.78	2.33
264.92	2.33
265.07	2.33
265.21	2.331
265.35	2.334
265.49	2.339
265.64	2.339
265.78	2.339
265.92	2.337
266.07	2.337
266.21	2.334
266.35	2.331
266.5	2.328
266.64	2.324
266.79	2.316
266.93	2.307
267.08	2.294
267.22	2.284
267.37	2.276
267.51	2.273
267.66	2.273
267.8	2.268
267.95	2.264
268.09	2.261
268.24	2.267
268.38	2.277
268.53	2.278
268.68	2.29
268.82	2.299
268.97	2.309
269.12	2.324
269.26	2.333
269.41	2.34
269.56	2.332
269.7	2.314
269.85	2.298
270	2.291
270.15	2.289
270.29	2.288
270.44	2.287
270.59	2.286
270.74	2.284
270.89	2.274
271.04	2.197
271.19	2.156
271.34	2.137
271.48	2.11
271.63	2.082
271.78	2.059
271.93	2.037
272.08	2.015
272.23	1.996
272.38	1.978
272.53	1.967
272.69	1.95
272.84	1.929
272.99	1.912
273.14	1.893
273.29	1.874
273.44	1.859
273.59	1.842
273.74	1.822
273.9	1.801
274.05	1.776
274.2	1.758
274.35	1.736
274.51	1.713
274.66	1.696
274.81	1.672
274.97	1.64
275.12	1.622
275.27	1.603
275.43	1.581
275.58	1.563
275.73	1.539
275.89	1.511
276.04	1.49
276.2	1.467
276.35	1.454
276.51	1.437
276.66	1.419
276.82	1.404
276.97	1.389
277.13	1.373
277.28	1.356
277.44	1.339
277.6	1.321
277.75	1.307
277.91	1.293
278.06	1.273
278.22	1.262
278.38	1.252
278.54	1.236
278.69	1.224
278.85	1.207
279.01	1.195
279.64	1.129
280.52	1.015
281.48	0.875
282.6	0.686
283.66	0.297
