Uv/Vis Spectrum: 1-tert-Butyl-3-methylbenzene
Formula: C11H16
CAS: 1075-38-3
Melting point: - 41.4
Boiling point: 189.3
Instrument: unknown
Origin: INSTITUTE OF ENERGY PROBLEMS OF CHEMICAL PHYSICS, RAS
Wavelength (nm)	Logarithm epsilon
227.25	1.995
227.38	1.979
227.55	1.964
227.76	1.95
227.93	1.933
228.18	1.918
228.35	1.9
228.56	1.884
228.73	1.864
228.98	1.849
229.15	1.828
229.4	1.808
229.61	1.785
229.87	1.767
230.08	1.741
230.33	1.72
230.58	1.699
230.79	1.673
231.09	1.649
231.34	1.624
231.6	1.592
231.89	1.563
232.19	1.532
232.48	1.504
232.82	1.475
233.16	1.443
233.49	1.416
233.83	1.387
234.14	1.37
234.55	1.359
234.97	1.356
235.37	1.358
235.77	1.365
236.11	1.376
236.45	1.392
236.81	1.409
237.15	1.428
237.52	1.446
237.85	1.463
238.24	1.483
238.57	1.501
238.98	1.521
239.3	1.542
239.65	1.563
239.97	1.584
240.28	1.606
240.62	1.624
240.91	1.645
241.21	1.665
241.51	1.684
241.8	1.703
242.14	1.72
242.43	1.741
242.73	1.757
243.02	1.773
243.32	1.788
243.61	1.805
243.87	1.825
244.16	1.838
244.46	1.854
244.75	1.869
245.05	1.884
245.34	1.898
245.64	1.909
245.93	1.92
246.23	1.931
246.57	1.939
246.86	1.95
247.16	1.96
247.45	1.97
247.75	1.981
248	1.995
248.25	2.005
248.46	2.018
248.67	2.03
248.88	2.043
249.1	2.055
249.31	2.067
249.56	2.077
249.81	2.086
250.06	2.095
250.32	2.105
250.61	2.113
250.91	2.122
251.16	2.13
251.46	2.138
251.75	2.145
252.05	2.151
252.34	2.157
252.64	2.164
252.93	2.17
253.23	2.177
253.44	2.186
253.69	2.193
253.86	2.202
254.07	2.211
254.28	2.22
254.45	2.229
254.7	2.236
254.91	2.244
255.17	2.251
255.42	2.257
255.72	2.263
256.01	2.268
256.35	2.272
256.69	2.276
256.98	2.28
257.23	2.287
257.57	2.292
257.95	2.292
258.29	2.287
258.54	2.281
258.88	2.277
259.26	2.278
259.55	2.283
259.76	2.29
259.93	2.297
260.06	2.306
260.14	2.314
260.27	2.322
260.4	2.329
260.52	2.337
260.65	2.344
260.73	2.352
260.9	2.358
261.03	2.365
261.15	2.372
261.32	2.378
261.53	2.384
261.83	2.39
261.87	2.391
261.91	2.391
261.96	2.391
262	2.391
262.04	2.392
262.08	2.392
262.12	2.393
262.17	2.393
262.21	2.394
262.25	2.394
262.34	2.394
262.5	2.393
262.67	2.389
262.84	2.383
263.01	2.38
263.18	2.382
263.35	2.392
263.47	2.399
263.62	2.405
263.78	2.409
264.02	2.412
264.19	2.412
264.36	2.408
264.53	2.4
264.7	2.391
264.88	2.376
265.03	2.361
265.2	2.34
265.37	2.313
265.54	2.295
265.71	2.276
265.88	2.261
266.05	2.247
266.21	2.24
266.38	2.237
266.55	2.235
266.72	2.238
266.89	2.243
267.06	2.249
267.23	2.254
267.4	2.26
267.56	2.265
267.73	2.27
267.9	2.273
268.07	2.274
268.24	2.271
268.41	2.268
268.58	2.262
268.74	2.253
268.91	2.241
269.08	2.221
269.25	2.207
269.42	2.194
269.59	2.188
269.76	2.187
269.93	2.192
270.09	2.208
270.26	2.234
270.43	2.261
270.6	2.295
270.77	2.322
270.88	2.332
271	2.342
271.27	2.35
271.44	2.352
271.64	2.346
271.8	2.331
271.95	2.299
272.12	2.248
272.29	2.19
272.46	2.139
272.62	2.086
272.79	2.033
272.96	1.991
273.13	1.954
273.3	1.913
273.47	1.871
273.64	1.833
273.8	1.802
273.97	1.763
274.14	1.731
274.31	1.695
274.48	1.661
274.65	1.624
274.82	1.597
274.99	1.558
275.15	1.532
275.32	1.499
275.49	1.469
275.66	1.436
275.83	1.409
276	1.379
276.17	1.348
276.33	1.323
276.5	1.286
276.67	1.247
276.77	1.225
277.01	1.192
277.17	1.164
277.35	1.129
277.44	1.108
277.68	1.071
277.85	1.055
