Uv/Vis Spectrum: 2,4,6-Octatriyne
Formula: C8H6
CAS: 1072-20-4
Melting point: 127
Instrument: Zeiss PMQ II
Origin: INSTITUTE OF ENERGY PROBLEMS OF CHEMICAL PHYSICS, RAS
Wavelength (nm)	Logarithm epsilon
182.53	4.304
182.67	4.306
182.81	4.308
182.96	4.308
183.1	4.31
183.24	4.312
183.53	4.308
183.82	4.314
184.11	4.317
184.4	4.319
184.69	4.327
184.98	4.336
185.27	4.348
185.57	4.361
185.86	4.378
186.16	4.401
186.45	4.424
186.75	4.449
187.05	4.479
187.35	4.51
187.65	4.535
187.95	4.569
188.25	4.601
188.56	4.626
188.86	4.645
189.17	4.66
189.47	4.672
189.78	4.689
190.09	4.71
190.4	4.71
190.71	4.7
191.02	4.687
191.33	4.672
191.65	4.66
191.96	4.641
192.28	4.632
192.59	4.626
192.91	4.622
193.23	4.624
193.55	4.63
193.87	4.643
194.19	4.658
194.52	4.674
194.84	4.695
195.16	4.723
195.49	4.761
195.82	4.803
196.15	4.845
196.48	4.885
196.81	4.921
197.14	4.952
197.47	4.973
197.8	4.999
198.14	5.02
198.48	5.028
198.81	5.028
199.15	5.011
199.49	4.988
199.83	4.952
200.17	4.916
200.52	4.855
200.86	4.796
201.21	4.738
201.55	4.695
201.9	4.67
202.25	4.645
202.6	4.632
202.95	4.626
203.3	4.626
203.66	4.634
204.01	4.649
204.37	4.683
204.73	4.727
205.09	4.773
205.45	4.832
205.81	4.895
206.17	4.95
206.53	5.036
206.9	5.1
207.27	5.127
207.63	5.152
208	5.152
208.37	5.108
208.75	5.051
209.12	4.969
209.49	4.874
209.87	4.78
210.25	4.689
210.62	4.575
211	4.483
211.39	4.39
211.77	4.3
212.15	4.205
212.54	4.085
212.92	3.997
213.31	3.9
213.7	3.809
214.09	3.705
214.49	3.614
214.88	3.544
215.26	3.479
215.67	3.42
216.07	3.355
216.47	3.294
216.87	3.214
217.27	3.144
217.68	3.089
218.08	3.022
218.49	2.97
218.82	2.93
219.14	2.891
219.57	2.837
220.04	2.772
220.55	2.704
220.97	2.645
221.39	2.595
221.81	2.555
222.23	2.502
222.65	2.452
223.08	2.403
223.5	2.361
223.93	2.311
224.36	2.252
224.79	2.21
225.22	2.168
225.66	2.126
226.09	2.088
226.53	2.048
226.97	2.014
227.41	1.987
227.85	1.953
228.3	1.928
228.75	1.907
229.19	1.879
229.64	1.858
230.1	1.827
230.55	1.797
231	1.772
231.46	1.745
231.92	1.726
232.38	1.713
232.84	1.709
233.31	1.715
233.77	1.732
234.24	1.753
234.71	1.774
235.18	1.795
235.65	1.816
236.13	1.827
236.63	1.829
237.08	1.832
237.63	1.839
238.05	1.854
238.54	1.888
239.03	1.932
239.52	1.932
240.03	1.907
240.5	1.888
241	1.867
241.48	1.84
241.99	1.803
242.5	1.764
243	1.738
243.51	1.724
244.01	1.715
244.52	1.709
245.04	1.709
245.55	1.711
246.07	1.719
246.58	1.734
247.11	1.766
247.63	1.81
248.15	1.858
248.68	1.888
249.21	1.907
249.74	1.928
250.28	1.949
250.81	1.987
251.35	2.054
251.89	2.13
252.44	2.134
252.98	2.126
253.53	2.107
254.08	2.083
254.64	2.05
255.19	2.01
255.75	1.985
256.31	1.957
256.87	1.942
257.44	1.928
258.01	1.917
258.58	1.909
259.15	1.907
259.72	1.911
260.3	1.934
260.88	2.003
261.47	2.054
262.05	2.075
262.64	2.064
263.23	2.048
263.82	2.046
264.42	2.056
265.02	2.098
265.62	2.18
266.23	2.241
266.83	2.269
267.44	2.273
268.06	2.269
268.67	2.254
269.29	2.227
269.91	2.195
270.53	2.163
271.16	2.134
271.79	2.1
272.42	2.069
273.06	2.043
273.7	2.024
274.34	2.014
275.01	2.012
275.63	2.029
276.26	2.085
276.94	2.138
277.6	2.138
278.26	2.104
278.92	2.043
279.59	2.022
280.26	2.024
280.93	2.046
281.61	2.113
282.28	2.178
282.97	2.21
283.65	2.243
284.34	2.281
285.04	2.296
285.73	2.277
286.43	2.254
287.13	2.214
287.84	2.168
288.55	2.132
289.26	2.086
289.98	2.046
290.7	1.985
291.43	1.963
292.15	1.957
292.89	1.963
293.61	1.985
294.36	2.008
295.1	2.012
295.85	1.951
296.6	1.801
297.35	1.745
298.11	1.719
298.87	1.715
299.64	1.719
300.41	1.749
301.18	1.806
301.96	1.86
302.74	1.934
303.52	2.052
304.31	2.058
305.11	2.039
305.91	2.008
306.71	1.974
307.51	1.93
308.32	1.883
309.14	1.814
309.96	1.751
310.78	1.681
311.61	1.61
312.44	1.54
313.28	1.467
314.12	1.395
314.96	1.322
315.81	1.273
316.67	1.235
317.53	1.199
318.39	1.17
319.26	1.138
