Uv/Vis Spectrum: 1,2,3,4,5,6,7,8-Octahydroanthracene
Formula: C14H18
CAS: 1079-71-6
Melting point: 78
Boiling point: 294
Instrument: Unicam SP 500
Origin: INSTITUTE OF ENERGY PROBLEMS OF CHEMICAL PHYSICS, RAS
Wavelength (nm)	Logarithm epsilon
294.809	1.12161
294.652	1.15541
294.495	1.18921
294.338	1.223
294.181	1.2568
294.024	1.29058
293.868	1.32437
293.712	1.35815
293.556	1.39192
293.4	1.42569
293.274	1.51448
293.244	1.45945
293.135	1.51422
293.088	1.4932
292.986	1.5139
292.922	1.51655
292.833	1.51348
292.833	1.51348
292.808	1.54913
292.743	1.51033
292.692	1.58171
292.647	1.50707
292.574	1.6143
292.543	1.50375
292.453	1.64689
292.33	1.67949
292.206	1.71208
292.079	1.74467
291.951	1.77725
291.821	1.80983
291.689	1.84241
291.556	1.87497
291.421	1.90752
291.285	1.94005
291.148	1.97258
291.01	2.00508
290.87	2.03757
290.73	2.07003
290.588	2.10248
290.446	2.1349
290.303	2.16729
290.159	2.19966
290.015	2.23199
289.87	2.2643
289.725	2.29657
289.725	2.29657
289.598	2.33988
289.469	2.38328
289.339	2.4267
289.207	2.47004
289.075	2.51321
288.942	2.55611
288.81	2.59865
288.677	2.64074
288.545	2.68229
288.414	2.7232
288.284	2.76338
288.156	2.80274
288.03	2.84118
287.906	2.87861
287.784	2.91494
287.666	2.95008
287.55	2.98393
287.438	3.01639
287.33	3.04739
287.226	3.07682
287.127	3.10459
287.032	3.13061
286.942	3.15479
286.858	3.17703
286.78	3.19724
286.707	3.21532
286.641	3.23119
286.582	3.24475
286.53	3.25591
286.485	3.26458
286.485	3.26458
286.338	3.26612
286.191	3.2676
286.144	3.30538
286.117	3.29331
286.086	3.2812
286.045	3.26897
286.045	3.26897
285.793	3.26898
285.561	3.26694
285.325	3.26483
285.08	3.26261
285.08	3.26261
284.822	3.22602
284.563	3.18939
284.303	3.15275
284.042	3.11608
283.78	3.07941
283.518	3.04272
283.256	3.00603
283.256	3.00603
283.09	3.00398
282.919	3.00187
282.74	2.99965
282.573	2.99325
282.454	2.99909
282.275	3.00214
281.883	3.00611
281.883	3.00611
281.511	3.04581
281.136	3.08539
280.752	3.12492
280.752	3.12492
280.53	3.12596
280.309	3.127
280.256	3.14726
280.254	3.14162
280.252	3.13598
280.25	3.13034
280.088	3.12804
280.088	3.12804
279.824	3.12329
279.58	3.11386
279.15	3.09168
279.15	3.09168
278.964	3.09111
278.77	3.09042
278.571	3.08967
278.571	3.08967
277.448	3.12924
277.185	3.17583
275.991	3.20549
275.991	3.20549
275.854	3.20414
275.717	3.20268
275.58	3.20116
275.58	3.20116
275.137	3.16257
274.695	3.12395
274.253	3.0853
273.812	3.04663
273.369	3.00795
272.925	2.96926
272.925	2.96926
272.638	2.96971
272.348	2.97005
272.049	2.97034
272.049	2.97034
271.927	2.97594
271.766	2.98041
271.43	2.98757
271.43	2.98757
271.198	2.98681
270.957	2.98606
270.713	2.98531
270.713	2.98531
270.402	2.97301
270.084	2.96065
269.762	2.94819
269.762	2.94819
269.302	2.90415
269.059	2.88528
268.824	2.87542
268.824	2.87542
268.134	2.8752
267.439	2.87493
266.744	2.87454
266.744	2.87454
266.045	2.8394
265.532	2.80329
265.083	2.76648
264.578	2.72926
263.898	2.6919
263.898	2.6919
263.276	2.6764
262.706	2.66283
262.339	2.65226
262.339	2.65226
261.285	2.61624
260.926	2.57076
259.953	2.53473
259.953	2.53473
259.224	2.50168
258.539	2.47443
257.565	2.43336
257.565	2.43336
256.733	2.38689
256.233	2.35562
255.633	2.31272
255.633	2.31272
255.276	2.30287
254.859	2.2883
254.503	2.27845
254.503	2.27845
253.917	2.2422
253.31	2.20592
252.684	2.16957
252.038	2.13311
251.371	2.09652
250.684	2.05974
250.684	2.05974
250.356	2.04631
249.99	2.02787
249.739	2.01802
249.739	2.01802
247.972	1.93106
246.865	1.87718
246.259	1.84799
246.001	1.8351
245.946	1.8301
245.946	1.8301
245.721	1.82517
245.385	1.81672
244.655	1.80123
244.517	1.80021
243.126	1.80942
242.467	1.83139
242.073	1.85812
242.073	1.85812
241.818	1.88956
241.572	1.92102
241.335	1.9525
241.107	1.98399
240.887	2.0155
240.675	2.04703
240.47	2.07856
240.273	2.11011
240.082	2.14167
239.897	2.17324
239.717	2.20482
239.543	2.23641
239.375	2.268
239.21	2.2996
239.05	2.33121
238.893	2.36283
238.739	2.39444
238.589	2.42606
238.441	2.45769
238.295	2.48931
238.151	2.52094
238.009	2.55256
237.867	2.58418
237.726	2.6158
237.585	2.64742
237.444	2.67903
237.302	2.71064
237.16	2.74224
237.016	2.77384
236.87	2.80542
236.723	2.837
236.573	2.86857
236.42	2.90013
236.264	2.93167
236.105	2.96321
235.942	2.99473
235.775	3.02623
235.603	3.05773
235.426	3.0892
235.244	3.12066
235.056	3.1521
234.863	3.18352
234.662	3.21492
234.456	3.2463
234.243	3.27766
234.022	3.309
233.793	3.34031
233.793	3.34031
233.11	3.41557
232.508	3.48247
231.983	3.54159
231.527	3.59346
231.133	3.63866
230.796	3.67773
230.509	3.71123
230.267	3.73971
230.064	3.76374
229.894	3.78386
229.752	3.80064
229.631	3.81463
229.528	3.82638
229.434	3.83645
229.347	3.8454
229.347	3.8454
228.474	3.88313
227.261	3.90259
225.281	3.91427
225.281	3.91427
224.656	3.92794
223.758	3.94483
223.304	3.96037
223.304	3.96037
222.973	3.9652
222.639	3.96991
222.301	3.97457
222.301	3.97457
220.79	3.96814
219.688	3.96903
218.16	3.98654
218.16	3.98654
217.823	3.9947
217.366	4.00457
217	4.01359
217	4.01359
215.639	4.04452
214.396	4.0984
213.708	4.13575
213.708	4.13575
213.066	4.1875
212.453	4.23747
211.872	4.28539
211.324	4.33099
210.812	4.37399
210.337	4.41412
209.901	4.45112
209.506	4.48471
209.155	4.51462
208.848	4.54059
208.589	4.56233
208.379	4.57958
208.221	4.59206
208.116	4.59951
208.116	4.59951
207.435	4.62396
206.779	4.6353
205.653	4.63929
205.653	4.63929
204.1	4.62506
202.505	4.60531
201.099	4.57919
200.1	4.54585
200.1	4.54585
200.028	4.5456
199.956	4.54528
199.884	4.54486
199.884	4.54486
199.23	4.51816
198.22	4.48713
197.337	4.46081
197.337	4.46081
196.948	4.44375
196.296	4.42103
195.721	4.40537
195.721	4.40537
195.354	4.38795
194.706	4.3663
194.208	4.35095
194.208	4.35095
193.746	4.33024
192.896	4.30513
192.44	4.28271
192.44	4.28271
191.824	4.26301
191.155	4.24115
190.141	4.20867
188.507	4.15709
188.507	4.15709
187.979	4.14279
187.334	4.1235
186.801	4.11245
186.801	4.11245
186.8	4.11109
186.8	4.10962
186.8	4.10809
186.8	4.10809
186.072	4.09018
185.359	4.06896
