Uv/Vis Spectrum: 2-Propenenitrile
Formula: C3H3N
CAS: 107-13-1
Boiling point: 77.3
Instrument: SF-4
Origin: INSTITUTE OF ENERGY PROBLEMS OF CHEMICAL PHYSICS, RAS
Wavelength (nm)	Logarithm epsilon
201.97	3.568
202.06	3.578
202.15	3.587
202.23	3.596
202.36	3.605
202.49	3.613
202.7	3.621
202.83	3.628
203	3.635
203.18	3.643
203.3	3.65
203.52	3.656
203.78	3.662
203.99	3.668
204.29	3.672
204.63	3.676
205.02	3.677
205.41	3.674
205.75	3.67
206.01	3.664
206.27	3.658
206.48	3.652
206.69	3.645
206.91	3.639
207.12	3.632
207.34	3.625
207.55	3.618
207.68	3.61
207.9	3.603
208.07	3.595
208.28	3.588
208.41	3.58
208.63	3.573
208.8	3.564
209.01	3.556
209.18	3.547
209.4	3.538
209.53	3.529
209.7	3.519
209.87	3.51
210.08	3.5
210.26	3.49
210.47	3.48
210.6	3.47
210.81	3.459
210.99	3.448
211.16	3.437
211.33	3.425
211.46	3.413
211.63	3.401
211.84	3.39
211.97	3.377
212.19	3.364
212.32	3.35
212.49	3.336
212.62	3.322
212.79	3.307
212.96	3.291
213.17	3.275
213.3	3.256
213.48	3.238
213.6	3.22
213.78	3.2
213.95	3.18
214.16	3.159
214.33	3.137
214.55	3.114
214.76	3.089
214.98	3.066
215.19	3.039
215.41	3.009
215.66	2.982
215.88	2.952
216.14	2.921
216.39	2.892
216.65	2.861
216.91	2.822
217.21	2.785
217.51	2.752
217.81	2.716
218.11	2.668
218.41	2.624
218.72	2.57
219.01	2.518
219.31	2.464
219.64	2.399
220	2.326
220.34	2.266
220.77	2.207
221.16	2.156
221.56	2.11
221.93	2.066
222.26	2.021
222.72	1.964
223.09	1.906
223.47	1.855
223.86	1.796
224.25	1.729
224.63	1.65
