Uv/Vis Spectrum: Benzene, hexyl-
Formula: C12H18
CAS: 1077-16-3
Melting point: - 61
Boiling point: 226
Instrument: unknown
Origin: INSTITUTE OF ENERGY PROBLEMS OF CHEMICAL PHYSICS, RAS
Wavelength (nm)	Logarithm epsilon
225.77	2.128
225.82	2.128
225.87	2.128
225.97	2.114
226.17	2.1
226.37	2.086
226.58	2.072
226.78	2.057
226.98	2.048
227.18	2.035
227.39	2.024
227.59	2.015
227.79	2.009
227.97	2.004
228.2	1.998
228.38	1.992
228.6	1.986
228.8	1.982
229.02	1.977
229.21	1.971
229.39	1.968
229.61	1.964
229.78	1.961
229.92	1.958
230.14	1.956
230.42	1.953
230.62	1.951
230.76	1.949
231.03	1.949
231.23	1.949
231.42	1.949
231.64	1.95
231.84	1.953
232.04	1.956
232.27	1.962
232.47	1.967
232.65	1.971
232.85	1.979
233.05	1.986
233.25	1.992
233.4	1.998
233.62	2.007
233.86	2.014
234.06	2.019
234.27	2.024
234.47	2.029
234.64	2.032
234.87	2.035
235.08	2.038
235.28	2.041
235.48	2.045
235.67	2.048
235.89	2.051
236.09	2.052
236.29	2.054
236.49	2.055
236.7	2.057
236.9	2.061
237.14	2.066
237.3	2.07
237.5	2.076
237.7	2.081
237.91	2.085
238.11	2.091
238.31	2.096
238.52	2.104
238.72	2.111
238.92	2.116
239.12	2.123
239.33	2.131
239.53	2.137
239.73	2.147
239.93	2.156
240.13	2.162
240.34	2.171
240.54	2.178
240.74	2.184
240.94	2.19
241.15	2.194
241.35	2.199
241.54	2.203
241.75	2.206
241.96	2.209
242.16	2.211
242.3	2.213
242.54	2.215
242.77	2.216
242.97	2.216
243.17	2.217
243.37	2.217
243.58	2.218
243.78	2.219
243.98	2.221
244.18	2.225
244.38	2.227
244.59	2.231
244.79	2.237
244.99	2.243
245.19	2.248
245.4	2.256
245.6	2.264
245.8	2.273
246	2.28
246.21	2.288
246.41	2.297
246.61	2.305
246.81	2.313
247.02	2.32
247.22	2.326
247.42	2.331
247.62	2.335
247.82	2.338
248.03	2.342
248.21	2.344
248.43	2.345
248.63	2.346
248.84	2.346
249.04	2.346
249.26	2.345
249.41	2.344
249.65	2.342
249.85	2.34
250.05	2.339
250.25	2.336
250.46	2.332
250.63	2.331
250.86	2.328
251.06	2.328
251.26	2.328
251.47	2.328
251.67	2.328
251.87	2.332
252.07	2.335
252.28	2.34
252.48	2.345
252.68	2.351
252.88	2.358
253.09	2.367
253.29	2.375
253.49	2.386
253.69	2.395
253.9	2.406
254.1	2.412
254.3	2.418
254.5	2.421
254.7	2.422
254.91	2.424
255.11	2.424
255.31	2.424
255.51	2.422
255.72	2.422
255.92	2.422
256.12	2.422
256.32	2.422
256.53	2.424
256.73	2.426
256.93	2.428
257.13	2.429
257.34	2.429
257.58	2.427
257.74	2.423
257.94	2.416
258.15	2.406
258.35	2.4
258.55	2.388
258.75	2.378
258.95	2.365
259.16	2.355
259.36	2.344
259.56	2.337
259.76	2.333
259.97	2.332
260.17	2.332
260.37	2.334
260.57	2.338
260.78	2.344
260.98	2.349
261.18	2.354
261.38	2.359
261.59	2.364
261.79	2.368
261.99	2.368
262.19	2.365
262.39	2.357
262.6	2.347
262.8	2.339
263	2.33
263.2	2.321
263.41	2.312
263.61	2.304
263.81	2.298
264.01	2.295
264.22	2.292
264.42	2.293
264.62	2.3
264.82	2.316
265.03	2.336
265.23	2.347
265.43	2.352
265.63	2.352
265.83	2.348
266.04	2.336
266.24	2.32
266.44	2.297
266.64	2.28
266.85	2.266
267.05	2.244
267.25	2.228
267.45	2.215
267.66	2.194
267.86	2.179
268.06	2.161
268.19	2.147
268.47	2.12
268.67	2.104
268.87	2.086
