Uv/Vis Spectrum: Acetaldoxime
Formula: C2H5NO
CAS: 107-29-9
Melting point: 45
Boiling point: 115
Instrument: n.i.g.
Origin: INSTITUTE OF ENERGY PROBLEMS OF CHEMICAL PHYSICS, RAS
Wavelength (nm)	Logarithm epsilon
254.87	0.139155
254.274	0.187295
253.942	0.217984
253.662	0.249321
253.662	0.249321
253.543	0.252076
253.425	0.254814
253.307	0.257535
253.307	0.257535
253.212	0.267453
252.995	0.286995
252.67	0.314962
252.254	0.350073
251.763	0.391129
251.213	0.43691
250.62	0.486147
250	0.537643
249.368	0.590139
248.739	0.642415
248.127	0.693243
247.548	0.741388
247.015	0.785615
246.543	0.824692
246.145	0.857393
245.835	0.882479
245.628	0.89872
245.536	0.904883
245.536	0.904883
245.464	0.922881
245.317	0.935935
244.97	0.95525
244.97	0.95525
244.507	0.991824
244.04	1.0283
243.571	1.06468
243.099	1.10097
242.624	1.13716
242.148	1.17328
241.671	1.20932
241.193	1.24529
240.714	1.28118
240.235	1.31701
239.756	1.35277
239.277	1.38848
238.8	1.42413
238.323	1.45973
237.849	1.49529
237.849	1.49529
237.344	1.52064
236.742	1.5577
236.242	1.58435
236.242	1.58435
235.611	1.62271
234.942	1.66029
234.241	1.69722
233.516	1.73367
232.775	1.76979
232.025	1.80574
231.273	1.84168
230.525	1.87775
230.525	1.87775
229.501	1.91287
228.481	1.94787
227.469	1.98281
226.463	2.01771
