Uv/Vis Spectrum: 2,4,4-Trimethyl-1-pentene
Formula: C8H16
CAS: 107-39-1
Melting point: -93.5
Boiling point: 101.4
Instrument: n.i.g.
Origin: INSTITUTE OF ENERGY PROBLEMS OF CHEMICAL PHYSICS, RAS
Wavelength (nm)	Logarithm epsilon
175.609	3.70022
176.416	3.70971
177.359	3.71738
178.326	3.72526
179.205	3.7352
179.884	3.7489
179.884	3.7489
180.773	3.75602
181.626	3.76414
182.449	3.77308
183.244	3.78269
184.015	3.7928
184.767	3.80329
185.504	3.81402
186.228	3.82486
186.944	3.83571
187.656	3.84647
188.369	3.85704
189.084	3.86735
189.807	3.87733
189.807	3.87733
190.501	3.88326
190.83	3.88665
192.183	3.88845
192.666	3.89028
193.269	3.88228
194.325	3.87312
195.341	3.86223
195.341	3.86223
195.834	3.85446
196.58	3.84208
197.431	3.82669
198.24	3.81007
198.861	3.79427
199.145	3.78165
199.145	3.78165
199.205	3.79008
199.249	3.78133
199.28	3.79012
199.352	3.78089
199.357	3.79017
199.441	3.79022
199.441	3.79022
199.444	3.78791
199.448	3.78553
199.452	3.783
199.456	3.78037
199.456	3.78037
199.642	3.76667
199.938	3.75245
200.504	3.73895
200.504	3.73895
201.393	3.70787
202.151	3.67945
202.795	3.6537
203.342	3.63045
203.809	3.60943
204.212	3.59021
204.568	3.57219
204.895	3.55469
205.209	3.53684
205.527	3.51766
205.865	3.49596
206.241	3.47029
206.672	3.4388
