Uv/Vis Spectrum: Toluene
Formula: C7H8
CAS: 108-88-3
Melting point: -94.9
Boiling point: 110.6
Instrument: n.i.g.
Origin: INSTITUTE OF ENERGY PROBLEMS OF CHEMICAL PHYSICS, RAS
Wavelength (nm)	Logarithm epsilon
274.957	1.05857
274.779	1.09101
274.601	1.12346
274.601	1.12346
274.541	1.14692
274.471	1.17039
274.394	1.19386
274.394	1.19386
274.337	1.19786
274.268	1.20199
274.195	1.20633
274.195	1.20633
274.018	1.23803
273.841	1.26974
273.671	1.24974
273.664	1.30149
273.54	1.24974
273.488	1.33327
273.399	1.24973
273.312	1.36511
273.252	1.24972
273.136	1.39702
273.136	1.39702
273.108	1.41701
273.075	1.43711
273.031	1.45743
272.807	1.48239
272.781	1.48703
272.75	1.49189
272.707	1.49686
272.707	1.49686
272.651	1.49737
272.584	1.498
272.511	1.49885
272.511	1.49885
272.39	1.51393
272.284	1.53341
272.135	1.57031
271.885	1.63763
271.885	1.63763
271.858	1.65475
271.825	1.6721
271.781	1.68955
271.071	1.75393
271.071	1.75393
271.07	1.76057
271.069	1.76743
271.068	1.7744
271.068	1.7744
271	1.74958
270.978	1.72247
270.952	1.7286
270.934	1.74545
270.921	1.73497
270.905	1.80345
270.879	1.74144
270.879	1.74144
270.742	1.83251
270.58	1.86156
270.418	1.89061
270.255	1.91966
270.093	1.94871
269.931	1.97777
269.77	2.00682
269.608	2.03587
269.447	2.06492
269.447	2.06492
269.375	2.06806
269.303	2.07143
269.231	2.0749
269.231	2.0749
269.036	2.12523
268.896	2.15979
268.774	2.18726
268.63	2.21631
268.425	2.25561
268.425	2.25561
268.37	2.26025
268.305	2.26511
268.234	2.27008
268.234	2.27008
268.163	2.27123
267.738	2.27006
267.667	2.26795
267.613	2.2625
267.528	2.24907
267.283	2.21936
267.201	2.2005
267.088	2.1699
266.922	2.12226
266.683	2.05229
266.683	2.05229
266.614	2.0468
266.55	2.0413
266.497	2.03581
266.497	2.03581
266.428	2.03482
266.364	2.03395
265.914	2.03578
265.861	2.03829
265.797	2.04091
265.728	2.04376
265.728	2.04376
265.389	2.09173
265.138	2.13405
264.926	2.16804
264.926	2.16804
264.785	2.20129
264.687	2.21966
264.548	2.23893
264.548	2.23893
264.41	2.2461
264.309	2.24972
264.156	2.25289
264.156	2.25289
263.881	2.25287
263.508	2.2535
263.126	2.25435
262.74	2.25531
262.74	2.25531
262.62	2.26859
262.417	2.29979
262.163	2.34494
261.886	2.40006
261.886	2.40006
261.732	2.41247
261.608	2.4201
261.41	2.4295
261.41	2.4295
261.162	2.43
260.909	2.43062
260.647	2.43145
260.647	2.43145
260.558	2.42594
260.47	2.42031
260.381	2.41446
260.381	2.41446
260.269	2.41394
260.152	2.4133
260.025	2.41244
260.025	2.41244
259.846	2.41393
259.663	2.41542
259.469	2.41691
259.469	2.41691
259.137	2.41689
258.8	2.41687
258.454	2.41685
258.454	2.41685
258.125	2.40773
257.961	2.40229
257.821	2.39584
257.821	2.39584
257.584	2.36537
257.347	2.3349
257.111	2.30442
257.111	2.30442
257.046	2.30242
256.981	2.30042
256.916	2.29842
256.916	2.29842
256.764	2.29691
256.613	2.29541
256.462	2.2939
256.108	2.30119
255.912	2.31403
255.746	2.32731
255.746	2.32731
255.623	2.33028
255.509	2.33315
255.401	2.33578
255.401	2.33578
255.214	2.33577
255.037	2.33576
254.866	2.33575
254.866	2.33575
254.829	2.33225
254.803	2.32876
254.781	2.32526
254.781	2.32526
254.566	2.3254
254.356	2.32642
253.972	2.32921
253.972	2.32921
253.887	2.33155
253.802	2.33367
253.717	2.33568
253.717	2.33568
253.653	2.34065
253.595	2.34552
253.546	2.35015
253.546	2.35015
253.419	2.35449
253.298	2.35861
253.185	2.36262
253.185	2.36262
252.975	2.36346
252.77	2.36407
252.575	2.36458
252.575	2.36458
252.51	2.35695
252.44	2.35255
252.304	2.34758
252.304	2.34758
252.058	2.32353
251.881	2.30902
251.621	2.29162
251.621	2.29162
251.377	2.25832
251.201	2.23733
250.944	2.21069
250.944	2.21069
250.824	2.20756
250.754	2.20431
250.676	2.19819
250.676	2.19819
250.532	2.19733
250.393	2.19669
250.263	2.19617
249.263	2.19905
249.067	2.2033
248.807	2.21056
248.807	2.21056
248.665	2.2097
248.523	2.20906
248.38	2.20853
248.38	2.20853
248.3	2.20418
248.219	2.20005
248.138	2.19604
248.138	2.19604
247.963	2.19203
247.796	2.18803
247.634	2.18402
247.634	2.18402
247.509	2.17765
247.379	2.17272
247.133	2.16502
247.133	2.16502
246.871	2.14615
246.604	2.13073
246.396	2.11753
246.396	2.11753
246.251	2.11508
246.076	2.10964
245.721	2.09652
245.721	2.09652
245.469	2.0965
245.226	2.09649
244.988	2.09647
244.988	2.09647
244.929	2.09819
244.888	2.10091
244.829	2.10695
244.829	2.10695
244.711	2.10979
244.598	2.11241
244.494	2.11492
244.494	2.11492
244.107	2.11489
243.73	2.11487
243.358	2.11484
243.358	2.11484
243.242	2.11199
243.131	2.10936
243.029	2.09835
243.029	2.09835
243.029	2.10099
243.028	2.10386
243.028	2.10683
243.028	2.10683
242.783	2.08849
242.547	2.07886
242.315	2.06934
242.315	2.06934
242.104	2.05749
241.893	2.04586
241.682	2.03435
241.682	2.03435
241.568	2.03084
241.458	2.02734
241.357	2.02384
241.357	2.02384
241.301	2.01949
241.249	2.01536
241.205	2.01135
241.205	2.01135
241.071	2.00836
240.938	2.00548
240.805	2.00283
240.652	2.00282
240.551	2.00281
239.881	2.00823
239.675	2.01145
239.381	2.01722
239.381	2.01722
239.273	2.02156
239.173	2.02567
239.078	2.02968
239.078	2.02968
238.703	2.03051
238.334	2.03111
237.974	2.0316
237.974	2.0316
237.756	2.0244
237.622	2.02063
237.454	2.01709
237.454	2.01709
237.418	2.01359
237.386	2.01009
237.363	2.0066
237.363	2.0066
237.257	2.00374
237.16	2.00111
237.067	1.99859
237.067	1.99859
236.754	1.99707
236.446	1.99555
235.472	1.94999
234.569	1.90704
234.569	1.90704
234.534	1.90269
234.503	1.89857
234.48	1.89455
234.48	1.89455
234.377	1.8917
234.282	1.88906
234.191	1.88654
234.191	1.88654
234.136	1.87751
234.08	1.87259
233.977	1.86755
233.977	1.86755
233.893	1.85708
233.817	1.84672
