Uv/Vis Spectrum: Phenol, 3-methyl-
Formula: C7H8O
CAS: 108-39-4
Melting point: 10.9
Instrument: Beckman DU
Origin: INSTITUTE OF ENERGY PROBLEMS OF CHEMICAL PHYSICS, RAS
Wavelength (nm)	Logarithm epsilon
219.45	3.729
219.62	3.729
219.79	3.726
219.96	3.719
220.47	3.698
220.99	3.681
221.5	3.658
222.01	3.641
222.52	3.62
223.03	3.59
223.55	3.556
224.06	3.522
224.57	3.498
225.08	3.471
225.59	3.437
226.1	3.407
226.62	3.353
227.13	3.329
227.64	3.292
228.15	3.265
228.66	3.207
229.18	3.173
229.69	3.129
230.2	3.088
231.22	2.953
231.73	2.858
232.25	2.756
232.76	2.692
233.27	2.655
233.78	2.607
234.81	2.536
235.32	2.512
235.83	2.495
236.34	2.479
236.85	2.462
237.36	2.451
237.88	2.441
238.39	2.428
238.9	2.424
239.41	2.421
239.92	2.414
240.44	2.414
240.95	2.418
241.46	2.421
241.97	2.428
242.48	2.428
243	2.431
243.51	2.445
244.02	2.448
244.53	2.455
245.04	2.462
245.55	2.465
246.07	2.472
246.58	2.475
247.09	2.482
247.6	2.492
248.11	2.499
248.63	2.502
249.14	2.506
249.65	2.516
250.16	2.526
250.67	2.533
251.18	2.543
251.7	2.553
252.21	2.567
252.72	2.58
253.23	2.59
253.74	2.607
254.26	2.617
254.77	2.631
255.28	2.651
255.79	2.668
256.3	2.682
256.82	2.699
257.33	2.712
257.84	2.726
258.35	2.743
258.86	2.763
259.37	2.78
259.89	2.797
260.4	2.814
260.91	2.828
261.42	2.848
261.93	2.872
262.45	2.889
262.96	2.902
263.47	2.929
263.98	2.939
264.49	2.96
265	2.98
265.52	3.007
266.03	3.024
266.54	3.051
267.05	3.061
267.56	3.078
268.08	3.099
268.59	3.105
269.1	3.119
269.61	3.129
270.12	3.143
270.64	3.153
271.15	3.17
271.66	3.187
272.17	3.2
272.68	3.224
273.19	3.234
273.71	3.244
274.22	3.251
274.73	3.241
275.24	3.217
275.75	3.2
276.27	3.166
276.78	3.112
277.29	3.082
277.8	3.051
278.31	3.041
278.82	3.034
279.34	3.048
279.85	3.092
280.36	3.187
280.87	3.234
281.38	3.268
281.9	3.261
282.41	3.183
282.92	3.129
283.43	3.048
283.94	2.95
284.45	2.844
284.97	2.767
285.48	2.658
285.99	2.58
286.5	2.482
287.01	2.367
287.53	2.302
288.55	2.167
289.06	2.079
289.57	1.974
290.09	1.892
290.6	1.787
291.11	1.709
