Uv/Vis Spectrum: 1,3-Benzenediamine
Formula: C6H8N2
CAS: 108-45-2
Melting point: 63-64
Instrument: Unicam SP 500
Origin: INSTITUTE OF ENERGY PROBLEMS OF CHEMICAL PHYSICS, RAS
Wavelength (nm)	Logarithm epsilon
202.36	4.288
202.45	4.288
202.54	4.29
202.63	4.29
202.72	4.293
202.81	4.293
202.89	4.293
202.98	4.295
203.07	4.295
203.34	4.308
203.88	4.327
204.42	4.346
204.96	4.365
205.51	4.38
206.06	4.4
206.61	4.417
207.17	4.432
207.73	4.449
208.29	4.464
208.85	4.475
209.42	4.486
209.99	4.494
210.57	4.494
211.15	4.494
211.73	4.492
212.31	4.483
212.9	4.473
213.49	4.46
214.08	4.445
214.68	4.43
215.28	4.411
215.88	4.391
216.49	4.37
217.1	4.346
217.71	4.318
218.33	4.293
218.95	4.263
219.57	4.235
220.2	4.209
220.83	4.183
221.47	4.16
222.11	4.136
222.75	4.113
223.39	4.089
224.04	4.072
224.7	4.053
225.36	4.035
226.02	4.016
226.68	4.003
227.35	3.99
228.02	3.977
228.7	3.967
229.38	3.958
230.07	3.952
230.76	3.945
231.45	3.941
232.15	3.937
232.85	3.932
233.56	3.93
234.27	3.924
234.98	3.92
235.7	3.915
236.42	3.911
237.15	3.905
237.89	3.9
238.62	3.892
239.36	3.887
240.11	3.879
240.86	3.87
241.62	3.862
242.38	3.851
243.14	3.836
243.91	3.817
244.69	3.793
245.47	3.778
246.25	3.77
247.04	3.746
247.84	3.72
248.64	3.69
249.44	3.658
250.25	3.626
251.07	3.57
251.89	3.529
252.72	3.484
253.55	3.431
254.39	3.375
255.23	3.319
256.08	3.244
256.93	3.176
257.79	3.103
258.66	3.026
259.53	2.97
260.41	2.921
261.29	2.878
262.18	2.837
263.08	2.811
263.98	2.798
264.89	2.796
265.8	2.794
266.72	2.798
267.65	2.814
268.58	2.831
269.52	2.856
270.47	2.88
271.42	2.908
272.38	2.931
273.35	2.961
274.32	2.994
275.3	3.015
276.29	3.047
277.28	3.081
278.29	3.116
279.29	3.122
280.31	3.15
281.33	3.182
282.37	3.214
283.41	3.249
284.45	3.274
285.51	3.294
286.57	3.302
287.64	3.313
288.72	3.315
289.8	3.315
290.9	3.313
292	3.304
293.11	3.292
294.23	3.264
295.36	3.232
296.5	3.191
297.64	3.141
298.8	3.081
299.98	3.023
301.14	2.966
302.32	2.897
303.51	2.798
304.71	2.704
305.92	2.612
307.14	2.509
308.37	2.408
308.92	2.36
309.35	2.316
309.95	2.265
310.65	2.175
311.28	2.089
311.91	1.988
312.54	1.892
