Uv/Vis Spectrum: Pyridine, 3-methyl-
Formula: C6H7N
CAS: 108-99-6
Melting point: - 18.1
Boiling point: 144.1
Instrument: n.i.g.
Origin: INSTITUTE OF ENERGY PROBLEMS OF CHEMICAL PHYSICS, RAS
Wavelength (nm)	Logarithm epsilon
240.49	3.179
240.88	3.187
241.26	3.195
241.59	3.203
241.92	3.212
242.19	3.221
242.52	3.23
242.8	3.238
243.07	3.248
243.4	3.255
243.68	3.263
243.95	3.271
244.22	3.278
244.5	3.286
244.77	3.294
244.99	3.303
245.21	3.311
245.49	3.318
245.71	3.326
245.98	3.333
246.2	3.34
246.47	3.348
246.8	3.354
246.97	3.362
247.19	3.369
247.41	3.376
247.57	3.384
247.74	3.39
247.96	3.397
248.18	3.404
248.4	3.41
248.56	3.417
248.72	3.423
248.94	3.429
249.16	3.435
249.44	3.441
249.66	3.447
249.82	3.454
250.04	3.46
250.21	3.466
250.37	3.472
250.53	3.478
250.75	3.483
250.92	3.49
251.08	3.496
251.25	3.501
251.41	3.507
251.69	3.512
251.85	3.517
252.02	3.522
252.24	3.527
252.4	3.533
252.62	3.538
252.78	3.543
253	3.548
253.11	3.553
253.28	3.558
253.5	3.562
253.72	3.567
253.88	3.572
254.05	3.577
254.21	3.582
254.38	3.587
254.54	3.591
254.76	3.595
254.92	3.6
255.09	3.605
255.25	3.609
255.42	3.613
255.64	3.617
255.86	3.621
256.08	3.625
256.24	3.629
256.46	3.633
256.63	3.637
256.9	3.641
257.17	3.644
257.34	3.648
257.61	3.652
257.94	3.655
258.16	3.659
258.44	3.662
258.71	3.666
259.04	3.669
259.37	3.672
259.64	3.675
259.97	3.678
260.3	3.681
260.69	3.683
261.07	3.686
261.51	3.687
261.95	3.689
262.39	3.691
262.88	3.691
263.32	3.69
263.7	3.688
263.98	3.685
264.09	3.681
264.2	3.677
264.36	3.673
264.53	3.67
264.69	3.666
264.8	3.662
264.97	3.659
265.13	3.655
265.29	3.651
265.46	3.647
265.68	3.643
265.73	3.639
265.95	3.635
266.12	3.632
266.28	3.628
266.45	3.624
266.61	3.62
266.78	3.616
266.94	3.612
267.16	3.608
267.33	3.603
267.6	3.599
267.82	3.595
268.04	3.591
268.31	3.587
268.59	3.583
268.86	3.578
269.19	3.575
269.36	3.571
269.57	3.566
269.74	3.562
269.96	3.557
270.07	3.552
270.29	3.547
270.45	3.543
270.62	3.538
270.73	3.532
270.89	3.527
271.06	3.521
271.17	3.516
271.28	3.51
271.39	3.504
271.44	3.498
271.55	3.492
271.66	3.486
271.71	3.48
273.25	3.327
273.31	3.325
273.36	3.323
273.47	3.317
273.58	3.307
273.69	3.292
273.8	3.284
273.91	3.272
274.02	3.263
274.13	3.255
274.24	3.248
274.35	3.231
274.46	3.225
274.57	3.216
274.68	3.207
274.79	3.199
274.9	3.19
275.01	3.178
275.12	3.165
275.23	3.154
275.34	3.145
275.45	3.139
275.56	3.133
275.67	3.131
275.78	3.125
275.88	3.117
275.99	3.111
276.1	3.105
276.21	3.098
276.32	3.091
276.43	3.085
276.54	3.081
276.65	3.074
276.76	3.071
276.87	3.067
276.98	3.064
277.09	3.06
277.2	3.056
277.31	3.055
277.42	3.053
277.53	3.049
277.64	3.045
277.75	3.042
277.86	3.038
277.97	3.036
278.08	3.034
278.19	3.03
278.3	3.028
278.41	3.024
278.52	3.024
278.63	3.02
278.74	3.016
278.85	3.014
278.96	3.01
