Uv/Vis Spectrum: Benzene, bromo-
Formula: C6H5Br
CAS: 108-86-1
Melting point: -30.6
Boiling point: 156.0
Instrument: n.i.g.
Origin: INSTITUTE OF ENERGY PROBLEMS OF CHEMICAL PHYSICS, RAS
Wavelength (nm)	Logarithm epsilon
355.423	2.98337
353.972	3.12395
352.543	3.22948
351.135	3.31419
349.748	3.38517
348.382	3.4465
347.036	3.5007
345.71	3.54948
344.403	3.59401
343.115	3.63516
341.847	3.67356
340.596	3.70971
340.596	3.70971
338.129	3.75116
336.284	3.77983
334.868	3.8007
333.696	3.81746
332.593	3.83309
331.387	3.85018
329.912	3.8709
329.912	3.8709
329.201	3.87394
328.037	3.87782
326.515	3.88252
324.729	3.888
322.77	3.89423
320.728	3.90117
320.728	3.90117
319.225	3.89722
317.701	3.88964
316.173	3.88057
316.173	3.88057
313.918	3.87378
312.588	3.86892
311.035	3.86183
311.035	3.86183
309.658	3.85279
308.296	3.84383
306.945	3.83498
305.604	3.8263
304.271	3.81785
302.943	3.80966
301.618	3.80182
300.295	3.79437
298.971	3.78739
297.645	3.78093
297.645	3.78093
296.638	3.78486
295.69	3.79543
294.799	3.81141
293.965	3.83152
293.186	3.85448
292.461	3.87919
291.789	3.90469
291.17	3.93019
290.603	3.95509
290.086	3.97888
289.619	4.00119
289.201	4.0217
288.832	4.04017
288.511	4.05638
288.238	4.07015
288.238	4.07015
287.959	4.09012
287.707	4.10906
287.481	4.1271
287.28	4.14434
287.1	4.16088
286.94	4.17679
286.798	4.19215
286.671	4.20702
286.56	4.22145
286.46	4.23551
286.371	4.24923
286.29	4.26265
