Uv/Vis Spectrum: Benzene, chloro-
Formula: C6H5Cl
CAS: 108-90-7
Melting point: -45.2
Boiling point: 131.7
Instrument: n.i.g.
Origin: INSTITUTE OF ENERGY PROBLEMS OF CHEMICAL PHYSICS, RAS
Wavelength (nm)	Logarithm epsilon
276.188	0.632923
276.086	0.708981
275.99	0.780749
275.899	0.848368
275.812	0.911988
275.729	0.971763
275.651	1.02784
275.577	1.08037
275.507	1.12949
275.44	1.17537
275.377	1.21815
275.318	1.25797
275.262	1.29499
275.209	1.32935
275.159	1.36121
275.112	1.39071
275.067	1.418
275.026	1.44324
274.986	1.46657
274.949	1.48813
274.913	1.50809
274.88	1.52658
274.848	1.54376
274.818	1.55977
274.789	1.57477
274.762	1.58891
274.736	1.60232
274.711	1.61517
274.686	1.6276
274.662	1.63976
274.639	1.6518
274.616	1.66387
274.593	1.67611
274.571	1.68868
274.548	1.70173
274.548	1.70173
274.405	1.73645
274.264	1.7687
274.125	1.79967
273.986	1.83054
273.848	1.86248
273.708	1.89669
273.567	1.93435
273.424	1.97663
273.278	2.02473
273.128	2.07983
273.128	2.07983
272.892	2.08343
272.645	2.08704
272.393	2.09063
272.393	2.09063
272.016	2.09057
271.634	2.09051
271.242	2.09044
271.242	2.09044
271.123	2.07531
270.998	2.06006
270.862	2.04458
270.862	2.04458
270.732	2.04128
270.591	2.03775
270.444	2.0341
270.444	2.0341
269.993	2.03433
269.724	2.03645
269.405	2.04225
269.405	2.04225
269.247	2.06429
269.115	2.07547
268.897	2.08536
268.897	2.08536
268.597	2.0853
268.286	2.08525
267.97	2.0852
267.97	2.0852
267.779	2.07525
267.582	2.0652
267.375	2.05491
267.375	2.05491
267.084	2.05432
266.788	2.05361
266.483	2.05267
266.483	2.05267
266.465	2.0592
266.358	2.06363
266.161	2.14316
266.161	2.14316
266.123	2.1187
266.09	2.09423
266.068	2.06977
266.068	2.06977
265.711	2.15879
265.399	2.1667
264.955	2.17366
264.955	2.17366
264.337	2.17354
263.717	2.17343
263.09	2.17332
263.09	2.17332
262.619	2.16319
262.139	2.15283
261.656	2.14236
261.656	2.14236
261.536	2.13542
261.405	2.12824
261.27	2.12095
261.27	2.12095
260.268	2.115
259.041	2.10982
258.236	2.1053
258.236	2.1053
257.965	2.08859
257.684	2.07189
257.398	2.05518
257.398	2.05518
257.101	2.05393
256.794	2.05244
256.483	2.05084
256.483	2.05084
256.364	2.05358
256.236	2.05654
256.102	2.05962
256.102	2.05962
256.048	2.06795
255.984	2.0764
255.916	2.08508
255.916	2.08508
255.797	2.08782
255.669	2.09078
255.536	2.09386
255.536	2.09386
255.293	2.09381
255.05	2.09376
254.808	2.09372
254.808	2.09372
253.702	2.05975
252.901	2.03429
252.393	2.02195
252.393	2.02195
252.11	2.01045
251.819	1.99894
251.523	1.98743
251.523	1.98743
251.309	1.98672
251.247	1.98061
251.096	1.98577
251.003	1.96657
250.883	1.9847
250.716	1.95148
250.307	1.92422
250.307	1.92422
250.181	1.92266
250.06	1.92121
249.948	1.91999
249.948	1.91999
249.35	1.87876
248.754	1.83752
248.161	1.79629
248.161	1.79629
247.772	1.78029
247.552	1.77045
247.381	1.76595
247.381	1.76595
247.056	1.74917
246.762	1.73795
246.547	1.72675
246.12	1.71157
245.773	1.70941
245.432	1.70726
245.101	1.70511
245.101	1.70511
244.658	1.69047
244.218	1.67594
243.779	1.66164
243.779	1.66164
243.254	1.62614
242.739	1.59065
242.232	1.55515
242.232	1.55515
242.015	1.55148
241.798	1.54793
241.581	1.5446
241.581	1.5446
241.465	1.53783
241.354	1.53118
241.252	1.52476
241.252	1.52476
241.056	1.52263
240.865	1.52051
240.683	1.51839
240.683	1.51839
240.471	1.50809
240.259	1.49802
240.047	1.48807
240.047	1.48807
239.853	1.48558
239.664	1.48332
239.484	1.48118
239.484	1.48118
238.966	1.41132
238.593	1.36011
238.333	1.32316
238.159	1.29606
238.041	1.27443
237.952	1.25387
237.862	1.22999
237.862	1.22999
237.35	1.21081
236.696	1.17992
236.078	1.15205
236.078	1.15205
235.567	1.13941
235.306	1.13422
235.069	1.13204
234.902	1.12993
234.579	1.13039
234.248	1.13097
233.915	1.13179
233.915	1.13179
233.619	1.13914
233.377	1.14974
232.98	1.17268
232.98	1.17268
232.773	1.18929
232.567	1.20589
232.361	1.2225
232.361	1.2225
232.138	1.28534
231.962	1.33989
231.818	1.37942
231.691	1.3972
231.691	1.3972
231.42	1.44361
231.182	1.47811
230.912	1.52452
230.912	1.52452
230.511	1.56595
230.112	1.60739
229.713	1.64882
229.316	1.69026
228.921	1.73169
228.921	1.73169
228.736	1.77568
228.549	1.81969
228.359	1.86375
228.168	1.90789
227.976	1.95212
227.976	1.95212
227.825	2.02131
227.69	2.08339
227.569	2.13895
227.46	2.18855
227.362	2.23277
227.274	2.27219
227.194	2.30737
227.12	2.33889
227.052	2.36734
226.988	2.39327
226.926	2.41727
226.865	2.4399
226.804	2.46176
226.74	2.48339
226.674	2.50539
226.602	2.52833
226.525	2.55277
226.44	2.5793
226.346	2.60849
226.346	2.60849
225.915	2.70254
225.535	2.78555
225.203	2.85821
224.916	2.92123
224.669	2.9753
224.46	3.02111
224.284	3.05938
224.138	3.09079
224.018	3.11604
223.922	3.13584
223.846	3.15088
223.786	3.16186
223.74	3.16947
223.704	3.17442
223.674	3.1774
223.648	3.17912
223.622	3.18027
223.622	3.18027
223.48	3.20417
223.339	3.22808
223.197	3.25198
223.197	3.25198
223.107	3.25458
223.01	3.25729
222.909	3.26023
222.909	3.26023
222.815	3.27598
222.715	3.29195
222.61	3.30804
222.61	3.30804
222.076	3.34799
221.537	3.38806
220.996	3.42836
220.996	3.42836
220.762	3.43767
220.529	3.44698
