Uv/Vis Spectrum: Phenol
Formula: C6H6O
CAS: 108-95-2
Melting point: 40.9
Boiling point: 181.8
Instrument: n.i.g.
Origin: INSTITUTE OF ENERGY PROBLEMS OF CHEMICAL PHYSICS, RAS
Wavelength (nm)	Logarithm epsilon
210	3.88
211	3.86
212	3.86
213	3.85
214	3.83
215	3.81
216	3.76
217	3.77
218	3.67
219	3.54
220	3.51
221	3.38
222	3.33
223	3.19
224	3.06
225	2.93
226	2.9
227	2.79
228	2.72
229	2.65
230	2.43
231	2.41
232	2.19
233	2.13
234	2.03
235	2.01
236	1.96
237	1.92
238	1.92
239	1.89
240	1.87
241	1.86
242	1.86
243	1.9
244	1.89
245	1.92
246	1.94
247	2.09
248	2.06
249	2.22
250	2.23
251	2.29
252	2.35
253	2.36
254	2.41
255	2.47
256	2.51
257	2.57
258	2.72
259	2.79
260	2.89
261	2.94
262	3.08
263	3.09
264	3.17
265	3.18
266	3.23
267	3.26
268	3.26
269	3.28
270	3.31
271	3.31
272	3.31
273	3.31
274	3.3
275	3.31
276	3.29
277	3.27
278	3.23
279	3.22
280	3.1
281	3.03
282	2.95
283	2.72
284	2.64
285	2.64
286	2.49
287	2.22
288	2
289	1.85
