Uv/Vis Spectrum: 2-Amino-4-methylpyrimidine
Formula: C5H7N3
CAS: 108-52-1
Melting point: 160.3
Boiling point: sub
Instrument: Beckman DU
Origin: INSTITUTE OF ENERGY PROBLEMS OF CHEMICAL PHYSICS, RAS
Wavelength (nm)	Logarithm epsilon
210.017	3.38323
210.507	3.3574
210.996	3.33127
211.486	3.305
212.955	3.2465
213.837	3.19908
214.75	3.15611
215.938	3.11412
217.647	3.06966
222.298	3.07623
222.298	3.08084
222.298	3.08544
222.298	3.09004
224.624	3.15512
225.113	3.18139
225.603	3.20752
226.093	3.23335
228.01	3.28397
228.786	3.31024
229.561	3.33636
230.336	3.3622
231.601	3.4207
232.88	3.46206
234.396	3.50748
235.789	3.5529
236.701	3.59425
239.883	3.65539
240.709	3.66535
241.534	3.67063
243.066	3.67577
246.861	3.65539
247.636	3.6383
248.411	3.6212
249.186	3.60411
251.104	3.55349
251.729	3.54239
252.11	3.5291
252.573	3.50222
254.082	3.43056
254.654	3.40802
255.225	3.38518
255.796	3.3622
256.204	3.30106
256.613	3.27523
257.032	3.2491
257.469	3.22283
258.326	3.15118
258.637	3.11699
258.912	3.09858
259.386	3.08018
260.447	3.03548
260.571	3.0039
260.704	2.97217
260.855	2.94016
261.712	2.86521
262.323	2.84004
262.598	2.82334
262.773	2.80079
264.242	2.72914
265.441	2.67832
266.493	2.63593
267.434	2.59848
268.301	2.56245
269.128	2.52434
269.954	2.48064
271.872	2.4228
272.647	2.3945
273.422	2.36607
274.197	2.33734
275.707	2.26568
276.32	2.23281
276.943	2.19994
277.584	2.16707
278.644	2.10922
279.34	2.07764
280.044	2.04592
280.766	2.0139
283.337	1.95277
283.95	1.92447
284.573	1.89604
285.214	1.86731
287.131	1.78908
287.702	1.7641
288.274	1.73912
288.845	1.71414
290.518	1.653
291.007	1.62717
291.497	1.60104
291.986	1.57477
293.088	1.50969
293.783	1.47811
294.487	1.44639
295.21	1.41437
