Uv/Vis Spectrum: Benzene, 1-chloro-3-methyl-
Formula: C7H7Cl
CAS: 108-41-8
Boiling point: 161.8
Instrument: unknown
Origin: INSTITUTE OF ENERGY PROBLEMS OF CHEMICAL PHYSICS, RAS
Wavelength (nm)	Logarithm epsilon
230.72	2.323
230.85	2.304
231.06	2.269
231.23	2.248
231.35	2.229
231.51	2.209
231.74	2.184
231.91	2.161
232.08	2.136
232.26	2.113
232.43	2.092
232.6	2.069
232.77	2.048
232.94	2.022
233.11	1.976
233.28	1.953
233.45	1.932
233.62	1.905
233.79	1.884
233.96	1.863
234.13	1.844
234.3	1.831
234.47	1.814
234.64	1.793
234.81	1.774
234.98	1.755
235.15	1.734
235.32	1.717
235.49	1.705
235.61	1.69
235.83	1.673
236	1.661
236.17	1.646
236.34	1.637
236.51	1.625
236.68	1.616
236.84	1.61
237.02	1.606
237.19	1.604
237.36	1.602
237.53	1.602
237.7	1.6
237.87	1.6
238.05	1.601
238.21	1.603
238.37	1.607
238.55	1.612
238.72	1.618
238.89	1.626
239.06	1.635
239.24	1.645
239.41	1.655
239.63	1.666
239.76	1.674
239.94	1.683
240.08	1.69
240.25	1.698
240.42	1.705
240.6	1.713
240.88	1.725
241.17	1.735
241.42	1.744
241.57	1.751
241.87	1.762
242.13	1.77
242.3	1.778
242.47	1.787
242.64	1.793
242.81	1.799
242.98	1.806
243.15	1.814
243.32	1.823
243.49	1.829
243.66	1.835
243.83	1.844
244	1.85
244.17	1.856
244.34	1.865
244.51	1.871
244.68	1.879
244.85	1.888
245.02	1.894
245.19	1.903
245.36	1.907
245.53	1.915
245.7	1.924
245.87	1.928
246.04	1.934
246.21	1.942
246.38	1.949
246.55	1.957
246.72	1.964
246.89	1.968
247.06	1.976
247.23	1.982
247.4	1.987
247.57	1.993
247.74	1.998
247.91	2.006
248.08	2.01
248.25	2.014
248.43	2.016
248.6	2.02
248.77	2.025
248.94	2.031
249.11	2.035
249.28	2.039
249.45	2.044
249.62	2.048
249.79	2.052
249.96	2.056
250.12	2.06
250.3	2.065
250.46	2.069
250.64	2.073
250.83	2.076
250.98	2.079
251.15	2.083
251.32	2.088
251.49	2.092
251.66	2.094
251.83	2.098
252	2.102
252.17	2.104
252.34	2.107
252.51	2.111
252.68	2.115
252.85	2.117
253.02	2.119
253.19	2.123
253.36	2.126
253.53	2.128
253.7	2.132
253.87	2.134
254.04	2.136
254.21	2.136
254.38	2.136
254.55	2.138
254.72	2.138
254.89	2.136
255.06	2.136
255.23	2.134
255.4	2.134
255.57	2.132
255.74	2.128
255.91	2.128
256.08	2.126
256.25	2.126
256.42	2.123
256.6	2.123
256.77	2.123
256.94	2.123
257.11	2.126
257.28	2.13
257.45	2.136
257.62	2.142
257.79	2.147
257.96	2.155
258.13	2.163
258.3	2.168
258.47	2.174
258.64	2.184
258.81	2.193
258.98	2.199
259.15	2.205
259.32	2.212
259.49	2.22
259.66	2.227
259.83	2.231
260	2.241
260.17	2.25
260.34	2.26
260.51	2.273
260.68	2.283
260.85	2.294
261.02	2.306
261.19	2.323
261.53	2.34
261.71	2.343
261.87	2.344
262.1	2.346
262.38	2.344
262.54	2.34
262.72	2.332
262.89	2.321
263.06	2.313
263.23	2.309
263.4	2.304
263.57	2.302
263.74	2.302
263.91	2.302
264.08	2.302
264.25	2.302
264.42	2.304
264.59	2.309
264.77	2.314
264.93	2.319
265.11	2.325
265.28	2.331
265.45	2.336
265.62	2.342
265.79	2.349
265.96	2.357
266.13	2.363
266.3	2.372
266.47	2.382
266.64	2.391
266.81	2.399
266.94	2.407
267.14	2.418
267.37	2.433
267.66	2.452
267.78	2.457
267.96	2.466
268.09	2.47
268.3	2.473
268.52	2.475
268.68	2.476
268.84	2.476
269.03	2.475
269.19	2.471
269.36	2.46
269.43	2.441
269.52	2.412
269.62	2.382
269.69	2.354
269.75	2.328
269.84	2.301
269.94	2.274
270.07	2.237
270.38	2.212
270.52	2.206
270.68	2.203
270.89	2.201
271.04	2.2
271.21	2.2
271.4	2.199
271.57	2.199
271.72	2.198
271.91	2.195
272.08	2.193
272.25	2.192
272.42	2.191
272.59	2.19
272.76	2.189
272.92	2.185
273.11	2.18
273.28	2.172
273.45	2.168
273.62	2.161
273.74	2.156
273.92	2.15
274.08	2.144
274.25	2.137
274.47	2.132
274.64	2.132
274.81	2.132
274.98	2.132
275.15	2.136
275.32	2.14
275.5	2.15
275.66	2.161
275.83	2.172
276	2.182
276.17	2.193
276.34	2.203
276.5	2.213
276.68	2.22
276.84	2.227
276.98	2.234
277.16	2.241
277.32	2.25
277.53	2.258
277.69	2.266
277.88	2.278
278.04	2.288
278.21	2.296
278.38	2.306
278.55	2.313
278.73	2.321
278.89	2.328
279.06	2.338
279.24	2.347
279.4	2.353
279.57	2.361
279.74	2.37
279.91	2.376
280.08	2.387
280.25	2.397
280.42	2.405
280.59	2.414
280.76	2.42
280.94	2.428
281.11	2.435
281.28	2.441
281.45	2.441
281.62	2.439
281.79	2.433
281.97	2.416
282.13	2.391
282.33	2.348
282.58	2.31
282.75	2.289
282.88	2.268
283	2.252
283.15	2.235
283.25	2.219
283.49	2.191
283.66	2.163
283.83	2.138
284	2.109
284.17	2.079
284.34	2.06
284.51	2.035
284.66	1.998
284.82	1.972
285.02	1.938
285.11	1.894
285.13	1.848
285.18	1.768
285.2	1.686
285.22	1.621
285.27	1.537
285.36	1.494
285.53	1.448
285.7	1.417
285.87	1.381
286.04	1.343
286.21	1.326
286.38	1.316
286.55	1.305
286.72	1.295
286.89	1.286
287.06	1.273
287.23	1.265
287.4	1.257
287.59	1.25
287.7	1.244
287.91	1.238
288.08	1.229
288.25	1.225
288.42	1.217
288.59	1.212
288.76	1.206
288.93	1.202
289.11	1.196
289.28	1.189
289.45	1.185
289.62	1.177
289.79	1.175
289.96	1.17
290.13	1.164
290.3	1.162
290.47	1.156
290.64	1.151
290.81	1.145
290.98	1.143
291.15	1.137
291.32	1.135
291.49	1.128
291.66	1.124
291.83	1.122
292	1.116
292.17	1.114
292.34	1.109
292.51	1.103
292.68	1.101
292.85	1.095
293.02	1.093
293.19	1.088
293.36	1.084
293.53	1.082
293.7	1.076
293.87	1.072
294.04	1.069
294.21	1.063
294.38	1.061
294.55	1.057
294.72	1.053
294.89	1.048
