Uv/Vis Spectrum: Cyanuric chloride
Formula: C3Cl3N3
CAS: 108-77-0
Melting point: 154
Boiling point: 192
Instrument: Beckman quartz spectrophotometer
Origin: INSTITUTE OF ENERGY PROBLEMS OF CHEMICAL PHYSICS, RAS
Wavelength (nm)	Logarithm epsilon
225.61	3.19
226.12	3.195
226.56	3.2
227	3.205
227.44	3.209
227.88	3.214
228.32	3.219
228.76	3.224
229.2	3.229
229.49	3.234
229.93	3.239
230.37	3.244
230.73	3.25
231.1	3.255
231.46	3.26
231.9	3.265
232.2	3.27
232.56	3.275
232.85	3.28
233.22	3.285
233.59	3.29
233.95	3.295
234.32	3.3
234.61	3.305
234.98	3.31
235.34	3.315
235.78	3.319
236.15	3.323
236.66	3.327
237.32	3.327
237.98	3.327
238.56	3.324
239.15	3.322
239.73	3.319
240.24	3.315
240.61	3.311
241.05	3.307
241.34	3.302
241.71	3.297
242	3.292
242.22	3.287
242.51	3.281
242.8	3.276
243.02	3.271
243.24	3.265
243.46	3.26
243.68	3.253
243.83	3.247
244.05	3.241
244.27	3.234
244.49	3.229
244.71	3.222
244.93	3.216
245.15	3.209
245.37	3.203
245.59	3.196
245.8	3.188
245.95	3.181
246.17	3.174
246.39	3.167
246.61	3.16
246.76	3.152
246.98	3.143
247.12	3.135
247.34	3.128
247.56	3.12
247.78	3.112
247.93	3.103
248.15	3.095
248.29	3.086
248.51	3.078
248.73	3.068
248.88	3.058
249.1	3.049
249.32	3.039
249.54	3.028
249.68	3.017
249.98	3.007
250.2	2.996
250.41	2.986
250.63	2.975
250.93	2.964
251.22	2.953
251.44	2.942
251.66	2.93
251.95	2.918
252.24	2.905
252.54	2.892
252.83	2.879
253.2	2.867
253.49	2.853
253.78	2.839
254.15	2.824
254.37	2.808
254.73	2.792
255.1	2.775
255.46	2.758
255.83	2.74
256.27	2.726
