Uv/Vis Spectrum: Benzo[g]pteridine-2,4(3H,10H)-dione, 7,8,10-trimethyl-
Formula: C13H12N4O2
CAS: 1088-56-8
Instrument: unknown
Origin: INSTITUTE OF ENERGY PROBLEMS OF CHEMICAL PHYSICS, RAS
Wavelength (nm)	Logarithm epsilon
279.15	4.249
280.01	4.184
281.03	4.108
282.03	4.033
283	3.959
283.61	3.915
284.32	3.863
285.03	3.813
286.03	3.739
286.72	3.689
287.35	3.643
288	3.596
288.67	3.549
289.18	3.509
289.58	3.49
290.14	3.472
290.8	3.457
291.36	3.446
291.93	3.437
294.17	3.415
296.4	3.396
298.64	3.384
300.88	3.384
303.11	3.396
305.35	3.419
307.59	3.451
309.82	3.482
312.06	3.522
314.29	3.548
316.53	3.59
318.77	3.64
321	3.674
323.24	3.714
325.48	3.738
327.71	3.778
329.95	3.808
332.18	3.828
334.42	3.844
336.66	3.843
338.89	3.837
341.13	3.826
343.37	3.817
345.6	3.806
347.84	3.797
350.08	3.789
352.31	3.771
354.55	3.754
356.78	3.722
359.02	3.683
361.26	3.651
363.49	3.614
365.73	3.585
367.97	3.567
370.2	3.545
372.44	3.522
374.67	3.501
376.91	3.488
379.15	3.485
381.38	3.488
383.62	3.507
385.86	3.519
388.09	3.545
390.33	3.572
392.57	3.602
394.8	3.635
397.04	3.658
399.27	3.691
401.51	3.725
403.75	3.75
405.98	3.781
408.22	3.806
410.46	3.826
412.69	3.853
414.93	3.877
417.16	3.892
419.4	3.914
421.64	3.929
423.87	3.941
426.11	3.953
428.35	3.964
430.58	3.972
432.82	3.982
435.06	3.989
437.29	4.003
439.53	4.025
441.76	4.029
444	4.029
446.24	4.026
448.47	4.017
450.71	4.005
452.95	3.996
455.18	3.974
457.42	3.956
459.65	3.935
461.89	3.926
464.13	3.918
466.36	3.907
468.6	3.895
470.84	3.871
473.07	3.847
475.31	3.834
477.55	3.803
479.78	3.776
482.02	3.724
484.25	3.677
486.49	3.587
488.73	3.504
490.96	3.426
493.2	3.299
495.44	3.194
497.67	3.088
499.91	2.969
502.14	2.912
503.84	2.877
506.62	2.833
508.87	2.804
510.81	2.785
513.32	2.767
515.45	2.752
517.8	2.737
520.04	2.719
522.27	2.7
524.51	2.68
528.98	2.636
531.22	2.613
533.45	2.589
535.69	2.563
537.91	2.547
540.16	2.535
542.56	2.523
544.63	2.505
