Uv/Vis Spectrum: Benzene, 1,3,5-trimethyl-
Formula: C9H12
CAS: 108-67-8
Melting point: -44.7
Boiling point: 164.5-164.8
Instrument: Spectrophotometer SF-16
Origin: INSTITUTE OF ENERGY PROBLEMS OF CHEMICAL PHYSICS, RAS
Wavelength (nm)	Logarithm epsilon
210	3.94
211	3.94
212	3.93
213	3.93
214	3.93
215	3.92
216	3.91
217	3.9
218	3.88
219	3.86
220	3.84
221	3.81
222	3.74
223	3.68
224	3.63
225	3.54
226	3.44
227	3.33
228	3.2
229	3.02
230	2.8
231	2.46
232	2.1
233	1.84
234	1.65
235	1.61
236	1.6
237	1.59
238	1.56
239	1.55
240	1.54
241	1.57
242	1.64
243	1.69
244	1.72
245	1.76
246	1.79
247	1.83
248	1.85
249	1.9
250	1.92
251	1.97
252	1.99
253	2.04
254	2.06
255	2.08
256	2.11
257	2.13
258	2.16
259	2.18
260	2.2
261	2.21
262	2.23
263	2.24
264	2.25
265	2.26
266	2.25
267	2.23
268	2.2
269	2.2
