Uv/Vis Spectrum: Cyclohexanone
Formula: C6H10O
CAS: 108-94-1
Melting point: -31
Boiling point: 155.4
Instrument: n.i.g.
Origin: INSTITUTE OF ENERGY PROBLEMS OF CHEMICAL PHYSICS, RAS
Wavelength (nm)	Logarithm epsilon
323.941	0.042182
323.307	0.079471
322.136	0.153296
322.136	0.153296
321.587	0.176352
320.84	0.215294
320.295	0.238347
320.295	0.238347
319.616	0.27637
318.912	0.314015
318.187	0.351332
317.441	0.388368
316.678	0.425175
315.9	0.461784
315.109	0.498255
314.308	0.534635
313.497	0.570963
312.68	0.607273
311.859	0.64364
311.035	0.680082
310.211	0.716663
309.388	0.753422
309.388	0.753422
307.644	0.813994
306.358	0.857622
305.385	0.88961
304.589	0.915273
303.838	0.939918
303	0.968856
303	0.968856
301.906	0.999122
300.751	1.02931
299.534	1.05919
298.258	1.08854
296.922	1.11713
295.529	1.14476
294.08	1.17118
292.576	1.19619
291.019	1.21955
289.41	1.24105
287.751	1.26046
286.044	1.27756
284.289	1.29213
282.49	1.30394
280.647	1.31277
280.647	1.31277
279.298	1.31245
277.952	1.31212
276.615	1.31179
276.615	1.31179
274.841	1.29822
273.141	1.28333
271.503	1.26724
269.918	1.25009
268.378	1.232
266.874	1.21311
265.398	1.19354
263.942	1.17344
262.499	1.15292
261.062	1.13212
259.623	1.11118
258.177	1.09021
258.177	1.09021
257.391	1.06363
255.705	1.02645
253.853	0.988822
252.537	0.960927
252.537	0.960927
252.091	0.948633
251.663	0.936946
251.214	0.924755
250.71	0.910966
250.115	0.894466
249.394	0.874151
248.514	0.848928
247.443	0.817678
246.151	0.779315
244.612	0.732715
242.8	0.676785
240.694	0.610426
240.694	0.610426
239.829	0.575534
238.73	0.539728
237.601	0.507208
237.601	0.507208
237.096	0.480237
236.232	0.444747
235.274	0.410794
235.274	0.410794
234.325	0.372857
233.379	0.33642
232.361	0.301095
231.196	0.266537
231.196	0.266537
230.872	0.269303
230.541	0.272051
230.208	0.274804
230.208	0.274804
230.07	0.283753
229.864	0.295391
229.674	0.312791
229.674	0.312791
229.514	0.324097
229.208	0.351197
228.776	0.390494
228.237	0.438416
227.613	0.491362
226.923	0.54574
226.923	0.54574
226.537	0.564311
225.844	0.603707
224.999	0.654792
224.158	0.708412
223.47	0.755433
223.47	0.755433
222.887	0.786006
222.407	0.820819
222.026	0.852565
222.026	0.852565
220.714	0.921353
219.79	0.969029
219.292	0.998447
