Uv/Vis Spectrum: Pyridine, 2,4-dimethyl-
Formula: C7H9N
CAS: 108-47-4
Melting point: -64
Boiling point: 158.5
Instrument: Unicam SP 500
Origin: INSTITUTE OF ENERGY PROBLEMS OF CHEMICAL PHYSICS, RAS
Wavelength (nm)	Logarithm epsilon
230.52	2.67526
230.999	2.65278
231.482	2.63144
231.98	2.61318
232.767	2.60963
233.118	2.63535
233.579	2.65268
234.08	2.66837
234.549	2.68815
234.916	2.71665
234.916	2.71665
235.093	2.72323
235.271	2.7297
235.448	2.73608
235.448	2.73608
235.809	2.75993
236.163	2.78367
236.51	2.80721
236.851	2.8305
237.185	2.85349
237.514	2.87614
237.837	2.8984
238.154	2.92027
238.466	2.94171
238.773	2.96273
239.074	2.98331
239.371	3.00345
239.663	3.02314
239.95	3.0424
240.233	3.06121
240.512	3.07959
240.787	3.09754
241.059	3.11506
241.327	3.13217
241.591	3.14887
241.852	3.16517
242.111	3.18108
242.366	3.1966
242.619	3.21175
242.869	3.22653
243.117	3.24095
243.363	3.25502
243.607	3.26875
243.85	3.28214
244.091	3.29521
244.331	3.30796
244.569	3.32039
244.807	3.33252
245.044	3.34435
245.28	3.35588
245.516	3.36713
245.752	3.3781
245.988	3.3888
246.224	3.39922
246.224	3.39922
246.438	3.41196
246.649	3.42395
246.86	3.43533
247.072	3.44619
247.285	3.45664
247.502	3.46676
247.723	3.47662
247.949	3.4863
248.183	3.49587
248.424	3.50539
248.424	3.50539
248.424	3.50587
248.429	3.50646
248.439	3.50732
248.461	3.50858
248.495	3.51042
248.548	3.51296
248.62	3.51636
248.717	3.52075
248.842	3.52624
248.997	3.53294
249.186	3.54093
249.414	3.5503
249.683	3.56108
249.996	3.5733
250.358	3.58697
250.771	3.60207
251.239	3.61856
251.765	3.63639
252.354	3.65548
252.354	3.65548
252.585	3.66183
252.818	3.66808
253.051	3.67422
253.286	3.68025
253.522	3.68618
253.76	3.692
254	3.69773
254.242	3.70335
254.486	3.70886
254.733	3.71428
254.982	3.71959
255.234	3.72481
255.489	3.72993
255.748	3.73495
256.009	3.73987
256.275	3.7447
256.544	3.74943
256.817	3.75406
256.817	3.75406
257.171	3.75807
257.501	3.7618
257.817	3.76513
258.128	3.76793
258.447	3.77009
258.782	3.77149
259.145	3.77201
259.546	3.77153
259.996	3.76991
259.996	3.76991
260.401	3.76585
260.795	3.76159
261.183	3.75708
261.57	3.75231
261.961	3.74724
261.961	3.74724
262.246	3.74275
262.527	3.73814
262.803	3.7334
263.076	3.72853
263.345	3.72352
263.611	3.71837
263.874	3.71306
264.135	3.7076
264.393	3.70198
264.65	3.69618
264.906	3.69021
264.906	3.69021
265.136	3.68328
265.368	3.67624
265.601	3.66907
265.835	3.66179
266.068	3.65439
266.068	3.65439
266.257	3.6455
266.447	3.63641
266.637	3.62711
266.827	3.6176
267.019	3.60786
267.019	3.60786
267.137	3.59971
267.252	3.59137
267.365	3.58284
267.476	3.57412
267.584	3.56519
267.691	3.55605
267.796	3.54668
267.899	3.53709
268	3.52726
268.099	3.51719
268.197	3.50685
268.294	3.49625
268.39	3.48537
268.484	3.47419
268.578	3.4627
268.671	3.4509
268.762	3.43875
268.854	3.42625
268.945	3.41337
269.035	3.4001
269.125	3.3864
269.215	3.37227
269.305	3.35766
269.395	3.34255
269.485	3.32691
269.575	3.3107
269.666	3.29388
269.666	3.29388
269.691	3.2917
269.731	3.28665
269.788	3.27841
269.865	3.2666
269.965	3.2507
270.089	3.23003
270.24	3.20366
270.422	3.17029
270.637	3.12802
270.886	3.07395
270.886	3.07395
271.064	3.04406
271.245	3.01326
271.431	2.98133
271.624	2.948
271.826	2.91291
272.037	2.87561
272.26	2.83551
272.495	2.79183
272.745	2.7435
273.01	2.68904
273.294	2.62626
273.596	2.55178
273.596	2.55178
273.636	2.55178
273.676	2.55178
273.716	2.55178
273.716	2.55178
273.745	2.56673
273.792	2.57165
273.842	2.57594
273.894	2.57989
273.935	2.47274
274.436	2.35043
274.985	2.19632
275.349	2.06349
275.349	2.06349
275.718	1.97146
276.101	1.81446
