Uv/Vis Spectrum: 4-(p-Nitrobenzyl)-pyridine
Formula: C12H10N2O2
CAS: 1083-48-3
Instrument: n.i.g.
Origin: INSTITUTE OF ENERGY PROBLEMS OF CHEMICAL PHYSICS, RAS
Wavelength (nm)	Logarithm epsilon
226.078	3.30355
226.459	3.30896
226.864	3.31429
227.057	3.32038
227.848	3.33671
228.064	3.34183
228.446	3.34679
228.662	3.35179
228.855	3.35738
229.048	3.36228
231.65	3.42349
231.843	3.4277
232.06	3.43239
232.253	3.43651
232.445	3.4406
232.662	3.44515
233.462	3.46539
234.068	3.48103
234.675	3.49659
234.868	3.50015
235.061	3.50368
235.282	3.51117
235.479	3.51811
235.672	3.52193
235.893	3.52869
236.283	3.53902
236.5	3.54265
236.697	3.54911
236.89	3.55226
237.087	3.55898
237.308	3.56558
237.505	3.5717
237.703	3.57812
237.923	3.58406
238.121	3.59031
238.314	3.59318
240.798	3.67278
240.995	3.67788
241.221	3.68528
241.418	3.68994
241.615	3.69484
241.817	3.70196
242.038	3.70672
242.239	3.71338
242.441	3.72022
242.662	3.72478
242.864	3.73144
243.062	3.73589
243.286	3.74212
243.484	3.74646
243.681	3.75076
243.902	3.75477
244.104	3.76098
244.301	3.76515
244.503	3.77122
244.93	3.7831
245.131	3.7887
245.357	3.79444
245.559	3.80012
245.76	3.80572
245.981	3.80947
246.178	3.81298
246.38	3.81842
246.601	3.82206
246.807	3.8291
247.009	3.83434
247.207	3.83786
247.436	3.84464
247.634	3.84807
247.84	3.8547
248.258	3.86119
250.126	3.89704
250.328	3.90153
250.53	3.90597
250.755	3.91037
250.957	3.91472
251.159	3.91903
251.384	3.92329
251.585	3.92735
251.787	3.93154
251.989	3.93569
252.214	3.93979
252.416	3.94386
252.618	3.94789
252.843	3.95188
253.049	3.95711
253.247	3.95976
253.476	3.96489
253.678	3.96874
253.884	3.97377
254.114	3.97873
254.315	3.98246
254.517	3.98615
254.715	3.98863
254.94	3.99227
255.146	3.99703
255.344	3.99945
255.573	4.00414
255.775	4.00765
255.977	4.01113
256.206	4.01569
256.408	4.01911
256.605	4.02128
256.807	4.02465
257.037	4.02921
257.234	4.03132
257.44	4.03568
257.665	4.03895
257.867	4.04219
258.069	4.04541
258.294	4.0486
260.152	4.07525
260.566	4.07821
260.98	4.08114
261.182	4.08409
266.11	4.08941
266.874	4.08639
267.063	4.08637
267.643	4.0843
271.849	4.05963
272.033	4.05848
272.217	4.05745
272.425	4.05642
272.605	4.05425
272.785	4.0522
272.992	4.05102
273.176	4.04998
273.361	4.04893
273.54	4.04673
273.748	4.04567
273.932	4.04448
274.116	4.04342
274.32	4.04131
274.503	4.04012
274.683	4.03799
274.891	4.03678
275.075	4.0357
275.255	4.03343
275.458	4.03127
275.642	4.03005
275.822	4.02787
276.001	4.02556
276.209	4.02445
276.389	4.02211
276.573	4.021
276.776	4.01864
276.96	4.01751
280.359	3.98008
280.538	3.97749
280.718	3.97489
280.893	3.97105
281.096	3.96856
281.272	3.96466
281.451	3.96198
281.655	3.95943
281.834	3.95672
282.014	3.95415
282.217	3.9514
282.397	3.94863
282.577	3.94601
282.757	3.94321
282.955	3.93907
283.135	3.9364
283.311	3.9322
283.518	3.93065
283.689	3.92503
283.868	3.92209
284.072	3.91931
284.247	3.91493
284.423	3.91052
284.626	3.90748
284.801	3.90316
284.981	3.90007
285.156	3.8955
285.359	3.89236
285.539	3.88937
285.719	3.88618
285.918	3.88146
286.098	3.8784
286.277	3.87513
286.476	3.87028
286.651	3.86539
286.831	3.86221
287.03	3.85722
287.209	3.85378
287.385	3.8487
287.564	3.84519
287.768	3.84186
287.947	3.8383
288.132	3.83659
290.522	3.7705
290.726	3.76654
290.905	3.76231
291.085	3.75803
291.288	3.75395
291.468	3.74959
291.648	3.74544
291.827	3.74099
292.031	3.73649
292.211	3.73221
292.386	3.72546
292.589	3.7208
292.769	3.71636
292.948	3.7116
293.151	3.70678
293.332	3.7022
293.719	3.69491
293.898	3.68991
294.078	3.68515
294.258	3.68003
294.461	3.67484
294.641	3.66991
294.82	3.66461
295.019	3.65671
295.204	3.65412
295.383	3.64862
295.587	3.64337
295.766	3.63773
295.937	3.62664
296.145	3.62385
296.513	3.61789
296.692	3.61191
296.896	3.60619
297.26	3.59709
297.463	3.59081
297.638	3.58144
298.026	3.57179
300.815	3.46229
301	3.45822
301.199	3.44545
301.378	3.43653
301.562	3.43221
301.765	3.42299
301.95	3.41854
302.13	3.4096
302.333	3.39988
302.697	3.38515
303.084	3.36989
303.263	3.35925
303.443	3.34898
303.647	3.33779
303.827	3.327
304.01	3.32076
304.398	3.30301
304.582	3.29713
304.969	3.27836
305.361	3.26581
305.55	3.26567
305.914	3.24548
306.121	3.23791
306.485	3.21636
307.056	3.18608
307.264	3.17834
307.444	3.16169
307.628	3.15353
307.812	3.14521
308.379	3.09916
308.583	3.08026
308.96	3.07983
