Uv/Vis Spectrum: 4,6-Dimethyl-2-pyrimidinol
Formula: C6H8N2O
CAS: 108-79-2
Melting point: 199-202
Instrument: Unicam SP 500
Origin: INSTITUTE OF ENERGY PROBLEMS OF CHEMICAL PHYSICS, RAS
Wavelength (nm)	Logarithm epsilon
213.13	4.125
213.29	4.125
213.46	4.125
213.63	4.125
213.8	4.125
213.97	4.125
214.14	4.125
214.3	4.125
214.47	4.125
214.64	4.128
214.81	4.128
215.65	4.101
216.49	4.084
217.33	4.061
218.17	4.044
219.02	4.01
219.86	3.99
220.7	3.94
221.54	3.906
222.38	3.869
223.22	3.822
224.06	3.782
224.9	3.734
225.75	3.681
226.59	3.62
227.43	3.556
228.27	3.475
229.11	3.411
229.95	3.371
230.79	3.246
231.64	3.128
232.48	2.994
233.32	2.906
234.16	2.832
235	2.772
235.84	2.721
236.68	2.708
237.53	2.698
238.37	2.698
239.21	2.701
240.05	2.704
240.89	2.711
241.73	2.718
242.57	2.728
243.41	2.752
244.26	2.775
245.1	2.795
245.94	2.819
246.78	2.839
247.62	2.856
248.46	2.876
249.3	2.903
250.15	2.927
250.99	2.953
251.83	2.977
252.67	3.007
253.51	3.028
254.35	3.054
255.19	3.075
256.04	3.095
256.88	3.115
257.72	3.139
258.56	3.149
259.4	3.166
260.24	3.189
261.08	3.209
261.92	3.233
262.77	3.253
263.61	3.28
264.45	3.314
265.29	3.334
266.13	3.361
266.97	3.388
267.81	3.415
268.66	3.438
269.5	3.465
270.34	3.492
271.18	3.509
272.02	3.536
272.86	3.556
273.7	3.576
274.55	3.593
275.39	3.61
276.23	3.63
277.07	3.654
277.91	3.681
278.75	3.701
279.59	3.728
280.44	3.748
281.28	3.768
282.12	3.788
282.96	3.805
283.8	3.822
284.64	3.835
285.48	3.852
286.32	3.869
287.17	3.882
288.01	3.899
288.85	3.906
289.69	3.92
290.53	3.93
291.37	3.936
292.21	3.95
293.06	3.953
293.9	3.963
294.74	3.967
295.58	3.97
296.42	3.97
297.26	3.967
298.1	3.963
298.95	3.957
299.79	3.95
300.63	3.936
301.47	3.926
302.31	3.899
303.15	3.889
303.99	3.869
304.83	3.839
305.68	3.808
306.52	3.775
307.36	3.718
308.2	3.674
309.04	3.627
309.88	3.573
310.72	3.522
311.57	3.455
312.41	3.398
313.25	3.33
314.09	3.236
314.93	3.155
315.77	3.075
316.61	3.001
317.46	2.933
318.3	2.866
319.14	2.799
319.98	2.731
320.82	2.661
321.66	2.573
322.5	2.499
323.35	2.418
324.19	2.341
325.03	2.267
325.87	2.183
326.71	2.098
327.55	2.004
328.39	1.94
329.23	1.886
330.08	1.792
330.92	1.705
331.76	1.617
332.6	1.536
333.44	1.459
334.28	1.392
335.12	1.324
335.97	1.244
336.81	1.166
