Uv/Vis Spectrum: cis-Azobenzene
Formula: C12H10N2
CAS: 1080-16-6
Melting point: 71
Instrument: Beckman DU
Origin: INSTITUTE OF ENERGY PROBLEMS OF CHEMICAL PHYSICS, RAS
Wavelength (nm)	Logarithm epsilon
228.44	4.39
231.23	4.36
233.1	4.34
235.43	4.33
236.36	4.34
237.76	4.35
238.69	4.37
241.49	4.39
243.35	4.39
244.29	4.38
246.15	4.34
248.02	4.295
248.48	4.292
248.95	4.287
249.88	4.262
250.81	4.23
251.74	4.204
252.68	4.187
253.61	4.157
254.54	4.134
255.47	4.109
256.41	4.084
257.34	4.047
258.27	4.027
259.2	4.019
260.14	4.014
261.07	4.011
262	4.009
262.93	4.016
263.86	4.029
264.8	4.034
266.66	4.064
267.59	4.082
268.53	4.094
269.46	4.104
270.39	4.117
271.32	4.129
272.26	4.129
273.19	4.132
275.05	4.149
275.98	4.152
278.78	4.162
279.71	4.159
280.65	4.162
281.58	4.167
282.51	4.169
283.44	4.172
284.38	4.172
285.31	4.172
286.24	4.174
287.17	4.174
288.11	4.174
289.04	4.172
289.97	4.174
292.77	4.167
293.7	4.164
294.63	4.164
295.56	4.169
297.43	4.157
298.36	4.154
299.29	4.152
300.23	4.147
301.16	4.142
302.09	4.139
303.02	4.134
303.95	4.127
304.89	4.124
306.75	4.112
307.68	4.112
308.62	4.102
309.55	4.099
310.48	4.092
311.41	4.087
312.35	4.077
313.28	4.069
314.21	4.047
315.14	4.049
316.08	4.032
317.01	4.032
317.94	4.022
318.87	4.009
319.8	4.001
320.74	3.991
321.67	3.966
322.6	3.964
323.53	3.944
324.47	3.934
325.4	3.916
326.33	3.899
327.26	3.866
328.2	3.844
329.13	3.821
330.06	3.773
330.99	3.756
331.92	3.741
332.86	3.718
333.79	3.678
334.72	3.653
335.65	3.641
336.59	3.603
337.52	3.568
338.45	3.53
339.38	3.498
340.32	3.473
341.25	3.447
342.18	3.397
343.11	3.305
344.05	3.249
344.98	3.207
345.91	3.184
346.84	3.144
347.77	3.117
348.71	3.087
349.64	3.031
350.57	3.029
351.5	2.996
352.44	2.969
353.37	2.936
354.3	2.911
355.23	2.884
356.17	2.873
357.1	2.853
358.03	2.838
358.96	2.811
359.89	2.786
360.83	2.781
361.76	2.763
362.69	2.751
363.62	2.738
364.56	2.731
365.49	2.711
366.42	2.675
367.35	2.67
368.29	2.683
369.22	2.703
370.15	2.723
371.08	2.776
372.02	2.806
372.95	2.843
373.88	2.876
374.81	2.901
375.74	2.921
376.68	2.924
377.61	2.951
378.54	2.986
379.47	3.014
380.41	3.064
381.34	3.094
382.27	3.089
383.2	3.102
384.14	3.124
385.07	3.144
386	3.169
386.93	3.194
387.86	3.202
388.8	3.222
389.73	3.244
390.66	3.27
391.59	3.275
392.53	3.307
393.46	3.322
394.39	3.34
395.32	3.352
396.26	3.38
397.19	3.382
398.12	3.407
399.05	3.42
399.98	3.43
400.92	3.442
401.85	3.45
402.78	3.463
403.71	3.47
404.65	3.49
405.58	3.488
406.51	3.488
408.38	3.505
409.31	3.503
410.24	3.508
411.17	3.51
412.11	3.515
413.04	3.518
413.97	3.52
414.9	3.523
415.83	3.523
416.77	3.523
417.7	3.523
418.63	3.525
419.56	3.525
420.5	3.525
421.43	3.528
424.23	3.52
425.16	3.515
426.09	3.513
427.95	3.495
428.89	3.488
429.82	3.485
430.75	3.475
431.68	3.468
432.62	3.463
433.55	3.455
434.48	3.458
436.35	3.435
437.28	3.432
438.21	3.415
439.14	3.405
440.08	3.395
441.01	3.385
441.94	3.37
442.87	3.367
443.8	3.347
444.74	3.345
445.67	3.317
446.6	3.305
447.53	3.29
448.47	3.275
449.4	3.265
450.33	3.237
451.26	3.237
452.2	3.197
453.13	3.187
454.06	3.169
454.99	3.162
455.92	3.159
456.86	3.139
457.79	3.137
458.72	3.104
459.65	3.089
460.59	3.069
461.52	3.061
462.45	3.054
463.38	3.026
464.32	3.021
466.18	2.994
467.11	2.981
468.05	2.969
468.98	2.951
469.91	2.941
470.84	2.914
471.77	2.911
472.71	2.894
473.64	2.889
474.57	2.873
475.5	2.856
476.44	2.821
477.37	2.798
478.3	2.793
479.23	2.773
480.17	2.753
481.1	2.713
482.03	2.678
482.96	2.655
