Uv/Vis Spectrum: m-Chloroaniline
Formula: C6H6ClN
CAS: 108-42-9
Melting point: 230.5
Instrument: Unicam SP 800 B
Origin: INSTITUTE OF ENERGY PROBLEMS OF CHEMICAL PHYSICS, RAS
Wavelength (nm)	Logarithm epsilon
201.69	4.419
202.99	4.468
204.57	4.512
205.42	4.522
206.26	4.509
207.11	4.481
207.96	4.458
208.8	4.413
209.65	4.379
210.5	4.331
211.34	4.28
212.19	4.226
213.04	4.164
213.88	4.079
214.73	3.994
215.58	3.925
216.42	3.878
217.27	3.765
218.12	3.69
218.96	3.659
219.81	3.646
220.66	3.629
221.5	3.618
222.35	3.622
223.2	3.625
224.04	3.629
224.89	3.642
225.74	3.656
226.58	3.673
227.43	3.69
228.28	3.707
229.12	3.734
229.97	3.751
230.82	3.769
231.66	3.789
232.51	3.803
233.35	3.827
234.2	3.85
235.05	3.871
235.89	3.888
236.74	3.905
237.59	3.919
238.43	3.932
239.28	3.943
240.13	3.946
240.97	3.949
241.82	3.949
242.67	3.932
243.51	3.932
244.36	3.922
245.21	3.908
246.05	3.888
246.9	3.864
247.75	3.84
248.59	3.813
249.44	3.769
250.29	3.734
251.13	3.69
251.98	3.639
252.83	3.591
253.67	3.547
254.52	3.492
255.37	3.424
256.21	3.342
257.06	3.277
257.91	3.195
258.75	3.107
259.6	3.066
260.44	3.028
261.29	2.96
262.14	2.892
262.98	2.82
263.83	2.793
264.68	2.786
265.52	2.783
266.37	2.786
267.22	2.79
268.91	2.796
269.76	2.813
270.6	2.844
271.45	2.871
272.3	2.899
273.14	2.929
273.99	2.957
274.84	2.977
275.68	3.004
276.53	3.025
277.38	3.049
278.22	3.073
279.07	3.09
279.92	3.11
280.76	3.127
281.61	3.151
282.46	3.168
283.3	3.185
284.15	3.199
285	3.216
285.84	3.226
286.69	3.24
287.53	3.253
288.38	3.26
289.23	3.271
290.07	3.274
290.92	3.284
291.77	3.284
292.61	3.284
293.46	3.281
294.31	3.277
295.15	3.271
296	3.267
296.85	3.253
297.69	3.247
298.54	3.233
299.39	3.219
300.23	3.202
301.08	3.189
301.93	3.168
302.77	3.151
303.62	3.127
304.47	3.1
305.31	3.073
306.16	3.039
307.01	3.004
307.85	2.974
308.7	2.936
309.55	2.892
310.39	2.848
311.24	2.8
312.09	2.732
312.93	2.667
313.78	2.602
314.63	2.534
315.47	2.462
318.01	2.261
318.86	2.179
319.7	2.046
320.55	1.923
321.4	1.797
322.24	1.65
323.09	1.538
323.94	1.432
324.78	1.306
325.63	1.207
326.48	1.098
327.32	0.988
