Uv/Vis Spectrum: Acetic acid ethenyl ester
Formula: C4H6O2
CAS: 108-05-4
Melting point: - 93.2
Boiling point: 72.5
Instrument: Hilger quartz spectrograph
Origin: INSTITUTE OF ENERGY PROBLEMS OF CHEMICAL PHYSICS, RAS
Wavelength (nm)	Logarithm epsilon
260.54	0.276
260.74	0.271
260.94	0.266
261.11	0.262
261.31	0.258
261.55	0.254
261.75	0.25
261.95	0.246
262.15	0.241
262.35	0.237
262.59	0.234
262.79	0.23
263.03	0.226
263.23	0.221
263.43	0.217
263.7	0.214
263.93	0.211
264.2	0.207
264.44	0.204
264.71	0.201
264.97	0.198
265.24	0.195
265.48	0.192
265.68	0.188
265.98	0.187
266.25	0.185
266.52	0.183
266.72	0.179
267.03	0.179
267.33	0.177
267.6	0.174
267.9	0.172
268.13	0.169
268.4	0.166
268.67	0.164
268.91	0.16
269.14	0.156
269.38	0.153
269.61	0.149
269.85	0.145
270.05	0.141
270.25	0.137
270.45	0.132
270.69	0.128
270.89	0.124
271.09	0.12
271.29	0.115
271.5	0.111
271.7	0.107
271.93	0.103
272.13	0.099
272.37	0.095
272.64	0.091
272.87	0.088
273.11	0.085
273.38	0.081
273.61	0.078
273.85	0.074
274.08	0.071
274.35	0.068
274.62	0.064
274.89	0.061
275.16	0.058
275.39	0.054
275.66	0.051
275.93	0.048
276.17	0.045
276.44	0.042
276.71	0.039
276.94	0.035
277.21	0.032
277.48	0.03
277.75	0.027
278.02	0.024
278.29	0.022
278.55	0.02
278.82	0.017
279.09	0.014
