Uv/Vis Spectrum: Resorcinol
Formula: C6H6O2
CAS: 108-46-3
Melting point: 111
Boiling point: 178(16)
Instrument: Unicam SP 500
Origin: INSTITUTE OF ENERGY PROBLEMS OF CHEMICAL PHYSICS, RAS
Wavelength (nm)	Logarithm epsilon
290.167	1.13459
290.071	1.17918
289.984	1.24516
289.984	1.24516
289.971	1.22377
289.93	1.27814
289.876	1.31111
289.874	1.24382
289.822	1.34408
289.768	1.37704
289.76	1.24237
289.714	1.40999
289.661	1.44293
289.635	1.24086
289.607	1.47587
289.553	1.50881
289.499	1.54174
289.445	1.57467
289.392	1.6076
289.338	1.64053
289.284	1.67345
289.284	1.67345
289.138	1.70532
288.991	1.73721
288.845	1.76913
288.697	1.80106
288.55	1.83301
288.403	1.86498
288.255	1.89696
288.108	1.92895
287.962	1.96096
287.815	1.99297
287.669	2.02498
287.523	2.05701
287.378	2.08903
287.234	2.12106
287.091	2.15308
286.948	2.1851
286.807	2.21711
286.666	2.24912
286.527	2.28112
286.389	2.3131
286.253	2.34508
286.118	2.37703
285.984	2.40897
285.853	2.4409
285.723	2.4728
285.594	2.50468
285.468	2.53653
285.344	2.56836
285.222	2.60016
285.102	2.63192
285.102	2.63192
284.798	2.66398
284.516	2.69604
284.251	2.72812
284.002	2.76021
283.765	2.7923
283.538	2.82438
283.317	2.85646
283.101	2.88852
282.886	2.92056
282.67	2.95258
282.45	2.98457
282.223	3.01653
281.986	3.04845
281.737	3.08033
281.473	3.11216
281.192	3.14393
280.891	3.17565
280.567	3.2073
280.567	3.2073
279.377	3.22252
278.101	3.23158
276.746	3.24257
276.746	3.24257
276.103	3.25537
275.459	3.26817
274.809	3.28097
274.809	3.28097
274.246	3.28103
273.685	3.28108
273.126	3.28114
273.126	3.28114
272.136	3.26517
271.227	3.24551
270.638	3.22509
270.638	3.22509
269.655	3.21402
268.513	3.20047
267.962	3.18511
267.962	3.18511
266.988	3.16476
266.122	3.13732
265.486	3.11302
265.486	3.11302
264.762	3.09272
264.269	3.06781
263.504	3.04751
263.504	3.04751
263.197	3.03226
262.908	3.018
262.59	3.00211
262.197	2.98197
261.684	2.95498
261.008	2.91852
260.126	2.86997
258.998	2.80672
257.585	2.72616
257.585	2.72616
256.435	2.66986
255.358	2.61803
254.412	2.57281
253.656	2.53634
253.146	2.51075
252.94	2.49818
252.94	2.49818
251.645	2.45774
250.441	2.41406
249.288	2.37022
249.288	2.37022
248.572	2.34882
247.689	2.32246
246.64	2.29765
245.428	2.2809
244.055	2.27874
242.525	2.29768
242.525	2.29768
242.196	2.30766
241.864	2.31763
241.527	2.32761
241.527	2.32761
240.959	2.35472
240.689	2.36572
240.483	2.37003
240.483	2.37003
239.863	2.41385
239.246	2.45756
238.633	2.50121
238.633	2.50121
238.334	2.53347
238.036	2.56572
237.736	2.59797
237.434	2.63021
237.131	2.66245
236.827	2.69467
236.521	2.72688
236.212	2.75909
235.902	2.79127
235.589	2.82345
235.273	2.8556
234.954	2.88774
234.633	2.91986
234.308	2.95195
233.98	2.98403
233.648	3.01608
233.313	3.04811
232.974	3.08011
232.631	3.11208
232.284	3.14402
231.932	3.17593
231.576	3.20781
231.215	3.23965
230.849	3.27146
230.478	3.30323
230.478	3.30323
229.819	3.34933
229.311	3.38465
228.887	3.41353
228.481	3.4403
228.026	3.4693
227.457	3.50488
226.713	3.55138
226.713	3.55138
226.046	3.57774
225.576	3.61172
224.881	3.63876
224.881	3.63876
224.875	3.6434
224.818	3.64611
224.664	3.64924
224.664	3.64924
223.898	3.68256
223.006	3.71726
221.937	3.74975
220.642	3.77645
219.075	3.79376
219.075	3.79376
217.4	3.79659
215.499	3.80168
214.055	3.81366
214.055	3.81366
212.158	3.83474
210.309	3.86822
208.81	3.90165
208.81	3.90165
207.943	3.92972
207.109	3.95853
206.311	3.98801
205.55	4.01806
204.826	4.0486
204.141	4.07953
203.497	4.11078
202.893	4.14225
202.333	4.17386
201.817	4.20552
