Uv/Vis Spectrum: Pyridine, 4-methyl-
Formula: C6H7N
CAS: 108-89-4
Melting point: 3.66
Boiling point: 143.3
Instrument: n.i.g.
Origin: INSTITUTE OF ENERGY PROBLEMS OF CHEMICAL PHYSICS, RAS
Wavelength (nm)	Logarithm epsilon
269.642	2.34232
269.211	2.42418
268.802	2.49746
268.41	2.56424
268.031	2.62589
267.661	2.68341
267.296	2.7375
267.296	2.7375
267.047	2.7854
266.812	2.82825
266.59	2.86704
266.38	2.90252
266.178	2.93524
265.986	2.96565
265.799	2.9941
265.618	3.02088
265.44	3.0462
265.44	3.0462
265.429	3.0503
265.418	3.05427
265.406	3.05829
265.392	3.0625
265.376	3.06704
265.358	3.07206
265.336	3.0777
265.31	3.08406
265.28	3.09126
265.245	3.0994
265.205	3.10857
265.159	3.11882
265.107	3.13022
265.047	3.1428
264.98	3.15657
264.906	3.17153
264.822	3.18766
264.73	3.20493
264.628	3.22329
264.517	3.24268
264.394	3.26303
264.261	3.28427
264.116	3.30632
263.959	3.32909
263.789	3.3525
263.607	3.37647
263.411	3.4009
263.201	3.42574
262.977	3.4509
262.738	3.4763
262.738	3.4763
262.559	3.4866
262.376	3.49627
262.186	3.50543
261.987	3.5142
261.778	3.52267
261.556	3.53094
261.319	3.53909
261.065	3.54721
260.792	3.55536
260.792	3.55536
260.338	3.56216
259.916	3.56844
259.522	3.57433
259.153	3.57999
258.805	3.58555
258.476	3.59113
258.163	3.59686
257.863	3.60285
257.572	3.60921
257.287	3.61605
257.287	3.61605
257.096	3.62312
256.905	3.63008
256.714	3.63693
256.522	3.64365
256.33	3.65026
256.136	3.65675
256.136	3.65675
255.798	3.6624
255.463	3.66653
255.129	3.66932
254.797	3.67089
254.468	3.67137
254.142	3.67086
253.82	3.66949
253.501	3.66734
253.188	3.66453
252.879	3.66114
252.575	3.65728
252.277	3.65305
251.986	3.64855
251.7	3.64391
251.7	3.64391
251.387	3.63729
251.127	3.63157
250.905	3.62647
250.705	3.62165
250.509	3.61679
250.304	3.61153
250.072	3.60551
249.798	3.59834
249.468	3.58958
249.065	3.57878
249.065	3.57878
248.953	3.57527
248.743	3.56921
248.458	3.56115
248.125	3.55169
247.768	3.54145
247.411	3.5311
247.08	3.52139
246.799	3.51314
246.592	3.50718
246.482	3.50441
246.482	3.50441
246.481	3.50365
246.467	3.50264
246.429	3.50097
246.355	3.49825
246.232	3.49405
246.049	3.48793
245.795	3.47937
245.458	3.46783
245.025	3.4526
244.488	3.43285
243.834	3.40746
243.834	3.40746
243.54	3.39681
243.246	3.38587
242.952	3.37463
242.659	3.36309
242.366	3.35121
242.073	3.339
241.78	3.32643
241.489	3.31347
241.197	3.30012
241.197	3.30012
240.945	3.28934
240.691	3.27806
240.435	3.26632
240.175	3.25412
239.912	3.24151
239.643	3.22852
239.369	3.21518
239.089	3.20155
238.802	3.18766
238.507	3.17358
238.204	3.15937
237.891	3.14511
237.569	3.13089
237.235	3.1168
236.891	3.10295
236.535	3.08947
236.166	3.07649
235.784	3.06415
235.388	3.05262
234.977	3.04205
234.552	3.03264
234.111	3.02454
234.111	3.02454
233.467	3.02427
232.825	3.024
232.182	3.02372
232.182	3.02372
231.657	3.03598
