Uv/Vis Spectrum: Furan, tetrahydro-
Formula: C4H8O
CAS: 109-99-9
Melting point: -108.3
Boiling point: 65
Instrument: Hilger fluorite prism spectrograph
Origin: INSTITUTE OF ENERGY PROBLEMS OF CHEMICAL PHYSICS, RAS
Wavelength (nm)	Logarithm epsilon
199.121	2.10189
199.116	2.10318
199.103	2.10557
199.09	2.06244
199.089	2.0659
199.085	2.08469
199.066	2.17749
198.789	2.12167
198.638	2.17858
198.577	2.17725
198.561	2.17183
198.38	2.16632
198.016	2.18326
197.931	2.34764
197.681	2.25612
197.562	2.37307
197.512	2.37305
197.45	2.37474
197.396	2.49001
197.148	2.40689
196.878	2.46569
196.65	2.58303
196.384	2.50748
196.298	2.57397
196.243	2.56895
196.195	2.55939
196.19	2.55516
196.069	2.55045
196.024	2.54327
196.022	2.55042
196.012	2.55106
195.988	2.55387
195.803	2.58494
195.689	2.5782
195.627	2.57817
195.609	2.5825
195.529	2.59313
195.382	2.59494
195.207	2.59421
195.189	2.59854
195.158	2.60761
195.095	2.62557
195.049	2.62679
194.99	2.62552
194.886	2.62092
194.84	2.62241
194.814	2.62543
194.717	2.65711
194.586	2.65115
194.446	2.64323
194.404	2.64206
194.269	2.68182
194.17	2.7122
194.049	2.73663
193.679	2.69765
193.645	2.698
193.611	2.69826
193.575	2.69846
193.555	2.69369
193.367	2.79024
193.309	2.77373
193.299	2.78066
193.251	2.77305
193.243	2.76525
193.233	2.75608
193.22	2.7596
193.146	2.76021
193.062	2.77122
193.042	2.76579
192.998	2.76122
192.898	2.74687
192.83	2.73513
192.796	2.74328
192.794	2.74941
192.542	2.82404
192.521	2.82403
192.473	2.824
192.406	2.80771
192.387	2.7999
192.343	2.79923
192.342	2.804
192.26	2.80655
192.186	2.80586
192.09	2.79145
192.007	2.7815
191.962	2.78212
191.905	2.78491
191.739	2.82251
191.613	2.84868
191.567	2.85343
191.519	2.84863
191.306	2.80954
191.195	2.78908
191.152	2.79571
191.127	2.8053
191.019	2.84598
190.93	2.86804
190.873	2.87407
190.844	2.87709
190.814	2.86537
190.708	2.84532
190.492	2.80496
190.456	2.81751
190.434	2.81337
190.388	2.82462
190.387	2.83177
190.311	2.87507
190.31	2.88027
190.24	2.91274
190.197	2.90442
190.143	2.89838
189.905	2.85575
189.756	2.83338
189.723	2.83763
189.722	2.84593
189.538	2.91228
189.46	2.9303
189.411	2.91944
189.045	2.86268
189.017	2.85746
188.964	2.8544
188.963	2.85982
188.852	2.86598
188.699	2.85967
188.698	2.86509
188.682	2.86876
188.666	2.86571
188.546	2.91673
188.476	2.94059
188.431	2.91001
188.309	2.86661
188.288	2.86637
188.212	2.86482
188.113	2.8665
187.846	2.90059
187.781	2.91507
187.759	2.90611
187.717	2.90052
187.626	2.86623
187.54	2.86986
187.358	2.87239
187.171	2.89674
187.138	2.90446
187.103	2.90559
187.064	2.90144
187.028	2.8958
186.842	2.8569
186.479	2.86079
186.282	2.87066
186.217	2.86999
186.06	2.84844
185.967	2.84984
185.891	2.85182
185.807	2.85177
185.714	2.83828
185.613	2.84768
185.506	2.85311
185.411	2.85241
185.107	2.79113
184.996	2.80116
184.892	2.80963
184.775	2.81066
184.576	2.78367
184.493	2.79012
184.196	2.7888
183.894	2.75987
183.368	2.76758
183.198	2.73692
182.99	2.72629
182.73	2.73297
182.473	2.70487
182.373	2.70458
182.271	2.70425
182.168	2.70382
181.748	2.65871
181.69	2.65905
181.618	2.65833
181.4	2.67281
181.204	2.67269
181.073	2.65976
180.86	2.6514
180.71	2.66351
180.594	2.66604
180.543	2.66601
180.455	2.64349
180.428	2.64492
180.402	2.63169
180.372	2.61282
180.317	2.60021
180.241	2.60104
179.695	2.68432
179.584	2.70509
179.568	2.69678
179.53	2.69054
179.462	2.65128
179.361	2.63561
179.331	2.64361
179.312	2.64359
179.292	2.64358
179.271	2.64134
179.271	2.64357
179.144	2.70064
179.109	2.71737
179.019	2.75328
178.999	2.74373
178.933	2.73893
178.763	2.69678
178.678	2.67571
178.638	2.68348
178.615	2.69539
178.409	2.7535
178.037	2.76474
177.938	2.75804
177.908	2.74545
177.889	2.75388
177.837	2.83205
177.805	2.84376
177.788	2.86413
177.58	2.83459
177.492	2.8154
177.455	2.80822
177.407	2.80451
177.391	2.8188
177.247	2.86551
177.043	2.9122
176.987	2.91167
176.966	2.91756
176.956	2.91388
176.709	2.84178
176.681	2.84285
176.665	2.85627
176.651	2.85431
176.592	2.93082
176.525	3.00636
176.41	3.03056
176.367	3.02164
176.257	2.99817
176.24	2.99311
176.201	2.98275
176.165	2.98851
176.155	2.9942
176.071	3.06306
175.91	3.1167
175.87	3.10584
175.789	3.09929
175.702	3.08775
175.665	3.08723
175.603	3.09137
175.5	3.12136
175.439	3.14841
175.305	3.18826
175.266	3.17394
175.192	3.17002
175.098	3.16473
175.027	3.16837
174.953	3.19171
174.904	3.21874
174.842	3.25291
174.296	3.27776
174.295	3.28123
174.214	3.32624
174.202	3.34119
174.06	3.37469
173.822	3.37995
173.794	3.38362
173.77	3.39141
173.721	3.40698
173.658	3.40325
173.578	3.40443
173.429	3.41409
173.187	3.41551
173.177	3.41637
173.125	3.4276
173.093	3.43056
173.083	3.42801
172.905	3.4253
172.809	3.43488
172.697	3.44575
172.619	3.44887
172.502	3.45104
172.502	3.45471
172.455	3.45121
172.411	3.44751
172.341	3.45201
172.12	3.45469
172.015	3.45786
171.987	3.45785
171.908	3.43807
171.855	3.43782
171.8	3.43751
171.745	3.4371
171.652	3.42815
171.48	3.42717
171.307	3.42472
171.201	3.42987
171.166	3.42588
170.983	3.39152
170.867	3.37085
170.847	3.37684
170.837	3.37972
170.724	3.37855
170.649	3.38002
170.63	3.38211
170.611	3.38411
170.485	3.38172
170.412	3.37943
170.37	3.37707
170.251	3.38387
170.171	3.38664
170.03	3.381
169.741	3.3716
169.539	3.36714
169.521	3.363
169.496	3.36082
169.461	3.3608
169.228	3.32835
169.129	3.31544
169.029	3.31992
168.976	3.31988
168.955	3.31473
168.93	3.30815
168.908	3.31101
168.891	3.30406
168.89	3.30645
168.786	3.31006
168.654	3.30947
168.588	3.30906
168.072	3.28399
167.973	3.28052
167.874	3.27519
167.751	3.266
167.633	3.26607
167.432	3.25776
167.355	3.25598
167.036	3.23987
166.859	3.23136
166.819	3.23046
166.326	3.20758
166.025	3.19566
165.923	3.19104
165.823	3.18642
165.696	3.17917
165.55	3.17303
165.375	3.16182
165.336	3.16093
165.183	3.15274
165.1	3.14537
165.052	3.14187
164.659	3.10193
164.388	3.07031
164.329	3.0655
164.151	3.04669
164.071	3.04705
163.975	3.03838
163.875	3.03115
163.84	3.02853
163.75	3.01775
163.437	2.99291
163.401	2.99461
163.359	2.9892
163.254	2.98263
163.195	2.97474
163.147	2.97578
163.099	2.97079
163.075	2.96577
163.024	2.9679
162.979	2.9631
162.967	2.96482
162.953	2.95658
162.897	2.95871
162.845	2.95303
162.81	2.95106
162.784	2.94844
162.648	2.93902
162.594	2.93291
162.425	2.92845
161.952	2.91525
