Uv/Vis Spectrum: 5,12-Naphthacenedione
Formula: C18H10O2
CAS: 1090-13-7
Melting point: 294
Instrument: Unicam SP 700
Origin: INSTITUTE OF ENERGY PROBLEMS OF CHEMICAL PHYSICS, RAS
Wavelength (nm)	Logarithm epsilon
207.42	4.076
207.68	4.082
207.94	4.087
208.2	4.087
208.45	4.093
208.71	4.099
208.97	4.105
209.23	4.105
209.5	4.111
209.76	4.117
210.02	4.117
210.28	4.122
210.55	4.128
210.81	4.134
211.08	4.134
211.34	4.14
212.15	4.163
212.89	4.186
213.72	4.208
214.55	4.232
215.42	4.257
216.31	4.288
217.09	4.316
217.95	4.352
218.79	4.386
219.64	4.43
220.52	4.473
221.39	4.514
222.27	4.561
223.16	4.608
224.05	4.655
224.95	4.696
225.86	4.737
226.78	4.772
227.7	4.784
228.64	4.766
229.55	4.734
230.38	4.688
231.48	4.637
232.44	4.596
233.41	4.567
234.39	4.55
235.33	4.539
236.28	4.528
237.38	4.52
238.39	4.509
239.41	4.497
240.44	4.485
241.25	4.474
242.35	4.461
243.58	4.444
244.65	4.427
245.72	4.409
246.81	4.392
247.86	4.377
249.01	4.362
250.04	4.354
251.26	4.352
252.38	4.356
253.53	4.368
254.68	4.38
255.85	4.392
257.03	4.409
258.21	4.427
259.41	4.444
260.62	4.456
261.84	4.456
263.07	4.438
264.32	4.421
265.57	4.403
266.84	4.403
268.12	4.409
269.42	4.427
270.72	4.462
272.04	4.491
272.72	4.492
273.37	4.485
274.71	4.45
276.07	4.433
277.49	4.427
278.82	4.433
280.22	4.438
281.63	4.456
283.06	4.479
284.5	4.514
285.96	4.55
287.43	4.573
288.27	4.568
288.91	4.544
289.12	4.515
289.2	4.496
289.29	4.444
289.29	4.412
289.37	4.376
289.45	4.31
289.54	4.276
289.62	4.244
289.91	4.216
290.3	4.199
290.92	4.187
291.42	4.175
291.93	4.163
292.44	4.146
292.95	4.134
293.46	4.122
294.49	4.087
296.05	4.023
297.63	3.976
299.22	3.953
300.84	3.976
302.46	4.035
304.11	4.058
305.77	4.076
307.46	4.076
309.16	4.064
310.01	4.034
310.52	3.977
310.86	3.885
311.29	3.812
311.8	3.744
312.14	3.703
312.61	3.672
313.2	3.66
313.78	3.649
314.37	3.637
314.96	3.625
315.56	3.614
316.15	3.602
316.81	3.592
317.95	3.578
319.16	3.555
320.38	3.526
321.61	3.479
322.85	3.409
324.1	3.251
325.35	3.157
326.62	3.075
327.9	3.046
329.19	3.029
330.48	3.023
331.79	3.034
333.11	3.052
334.56	3.08
335.84	3.112
337.2	3.14
338.49	3.163
339.86	3.198
341.25	3.233
342.63	3.266
344.05	3.298
345.46	3.327
346.89	3.356
348.48	3.392
350.91	3.437
353.53	3.488
356.33	3.54
358.77	3.586
361.39	3.629
364.19	3.673
366.16	3.7
368.22	3.731
369.85	3.742
371.49	3.746
373.36	3.732
374.81	3.695
376.49	3.666
378.19	3.637
379.91	3.625
381.63	3.625
383.38	3.643
385.14	3.672
386.92	3.719
388.71	3.748
390.52	3.754
392.25	3.726
393.18	3.643
394.18	3.499
395.4	3.329
396.34	3.2
397.12	3.097
397.94	3.023
398.89	2.982
399.84	2.97
400.79	2.953
401.75	2.941
402.72	2.929
403.69	2.912
404.66	2.9
405.64	2.888
406.62	2.871
407.61	2.853
409.6	2.789
411.62	2.707
413.76	2.555
414.98	2.38
416.27	2.153
417.35	1.977
418.42	1.823
419.29	1.709
420.29	1.565
