Uv/Vis Spectrum: Divinyl ether
Formula: C4H6O
CAS: 109-93-3
Melting point: -101
Boiling point: 28.3
Instrument: Fluorite prism instrument or Beckman DU
Origin: INSTITUTE OF ENERGY PROBLEMS OF CHEMICAL PHYSICS, RAS
Wavelength (nm)	Logarithm epsilon
235.952	1.05319
235.476	1.14165
235.331	1.15875
235.154	1.19655
234.978	1.23401
234.802	1.27123
233.769	1.44857
233.571	1.48345
233.376	1.51832
233.183	1.55316
232.992	1.58795
232.802	1.6227
232.614	1.65738
232.428	1.69199
232.242	1.72652
231.288	1.90971
229.465	2.21411
229.329	2.23931
229.138	2.27271
227.12	2.5767
226.825	2.61722
226.535	2.6575
226.252	2.69761
225.304	2.83305
224.872	2.88753
222.541	3.1318
220.987	3.2773
220.511	3.31703
219.292	3.43152
218.969	3.46012
217.08	3.59292
216.5	3.63282
214.079	3.79772
213.214	3.83787
213.214	3.83787
212.771	3.86491
212.053	3.90408
210.369	3.98559
210.181	3.99309
209.926	3.99982
209.926	3.99982
208.069	4.05642
207.743	4.07131
205.534	4.1478
205.534	4.1478
203.828	4.17999
203.553	4.18329
202.489	4.18817
202.489	4.18817
202.138	4.18637
201.787	4.18457
200.226	4.18197
199.891	4.18233
198.383	4.15981
198.08	4.15676
196.579	4.13569
196.08	4.12833
194.927	4.09886
194.732	4.09437
193.189	4.05787
192.901	4.0505
191.719	4.01193
191.603	4.00727
190.881	3.9968
190.724	3.99555
188.446	3.91786
188.242	3.90879
186.77	3.84831
184.902	3.78454
183.053	3.73592
182.749	3.73075
181.469	3.69783
181.3	3.69435
181.139	3.69088
180.05	3.65858
179.79	3.65108
179.79	3.65108
177.531	3.59697
175.986	3.60536
175.699	3.6123
174.323	3.62708
174.122	3.62873
173.933	3.63037
172.922	3.65915
172.811	3.66083
172.69	3.6625
171.636	3.6964
170.369	3.73542
168.467	3.81429
167.917	3.84239
