Uv/Vis Spectrum: Pyridine, 2-bromo-
Formula: C5H4BrN
CAS: 109-04-6
Boiling point: 193; 75(13)
Instrument: Beckman spectrophotometer
Origin: INSTITUTE OF ENERGY PROBLEMS OF CHEMICAL PHYSICS, RAS
Wavelength (nm)	Logarithm epsilon
282.522	1.89728
281.749	2.0323
280.866	2.16888
280.866	2.16888
280.358	2.28621
279.846	2.3785
279.334	2.45458
279.334	2.45458
278.436	2.61307
277.894	2.68788
277.696	2.74686
277.634	2.74792
277.618	2.72386
277.576	2.75703
277.571	2.74886
277.519	2.74025
277.509	2.74958
277.509	2.74958
277.49	2.75908
277.403	2.76101
277.32	2.76759
277.317	2.76272
277.317	2.76272
277.314	2.75927
277.312	2.7558
277.31	2.7523
277.192	2.79942
277.127	2.7802
277.07	2.7877
277.065	2.82907
277.012	2.79498
276.954	2.80194
276.938	2.85682
276.811	2.88289
276.685	2.90748
276.56	2.93074
276.435	2.95282
276.31	2.97382
276.187	2.99384
276.064	3.01298
275.942	3.03131
275.821	3.04889
275.7	3.06579
275.581	3.08204
275.462	3.09771
275.344	3.11283
275.228	3.12744
275.112	3.14158
274.997	3.15526
274.884	3.16852
274.772	3.1814
274.661	3.19389
274.551	3.20604
274.442	3.21786
274.335	3.22936
274.229	3.24057
274.125	3.25149
274.022	3.26215
273.92	3.27255
273.82	3.2827
273.722	3.29263
273.625	3.30233
273.625	3.30233
273.464	3.30744
273.283	3.31098
272.956	3.31411
272.956	3.31411
272.437	3.30829
272.156	3.30082
271.961	3.29284
271.699	3.28559
271.221	3.28039
270.379	3.27858
270.379	3.27858
270.221	3.28279
270.063	3.28693
269.904	3.29096
269.904	3.29096
269.712	3.30078
269.525	3.3104
269.344	3.31984
269.167	3.3291
268.996	3.33818
268.83	3.34709
268.669	3.35583
268.513	3.36441
268.361	3.37282
268.214	3.38108
268.071	3.38918
267.932	3.39713
267.798	3.40494
267.667	3.4126
267.541	3.42011
267.418	3.42749
267.298	3.43473
267.183	3.44184
267.07	3.44881
266.962	3.45566
266.962	3.45566
266.86	3.45694
266.729	3.46068
266.459	3.46995
266.459	3.46995
266.298	3.47017
266.136	3.4704
265.976	3.47062
265.976	3.47062
265.893	3.46767
265.802	3.46465
265.686	3.46069
265.528	3.45491
265.312	3.44635
265.022	3.43392
264.641	3.41634
264.641	3.41634
264.368	3.40831
264.048	3.39991
263.63	3.39179
263.067	3.38465
262.308	3.37921
262.308	3.37921
262.052	3.38031
261.698	3.38154
261.335	3.38384
261.335	3.38384
260.966	3.3914
260.707	3.39593
260.335	3.40134
260.335	3.40134
260.188	3.40138
260.037	3.40142
259.883	3.40146
259.883	3.40146
259.702	3.39742
259.534	3.39268
259.393	3.38971
259.393	3.38971
259.241	3.38116
259.047	3.37238
258.812	3.36339
258.541	3.35423
258.237	3.34495
257.901	3.33558
257.539	3.32619
257.151	3.31681
256.742	3.30752
256.171	3.30051
255.858	3.29508
255.577	3.29109
255.088	3.28511
254.698	3.27991
254.547	3.27818
254.396	3.27643
254.245	3.27468
253.912	3.27071
253.296	3.26368
252.776	3.25478
252.329	3.2444
251.932	3.23294
251.561	3.22085
251.23	3.21289
251.079	3.20841
250.929	3.20388
250.779	3.19931
250.334	3.18915
250.301	3.18764
250.266	3.18605
250.226	3.1844
249.786	3.16795
249.417	3.15498
249.174	3.14782
248.849	3.14055
248.264	3.1313
248.127	3.12884
247.987	3.12638
247.844	3.1239
245.621	3.07957
245.557	3.07723
245.488	3.07483
245.417	3.07231
245.096	3.06499
244.513	3.0517
243.929	3.03793
243.345	3.02359
242.832	3.01003
242.716	3.00871
242.6	3.00733
242.483	3.00582
241.52	2.98414
240.795	2.97692
240.071	2.96865
239.343	2.95996
238.604	2.9515
237.848	2.94399
237.07	2.93818
236.932	2.93666
236.521	2.93703
236.111	2.9374
235.703	2.93777
235.326	2.94137
234.575	2.94803
233.894	2.95551
233.256	2.96421
232.637	2.97452
232.012	2.98674
231.358	3.00115
231.358	3.00115
230.373	3.03381
229.802	3.05259
229.519	3.06019
229.519	3.06019
229.175	3.0744
228.913	3.08557
228.648	3.0977
228.297	3.11436
227.778	3.13849
227.607	3.14495
227.446	3.15655
227.28	3.16882
227.111	3.18152
226.942	3.19444
226.774	3.20742
226.609	3.22027
226.448	3.23287
226.295	3.24508
226.151	3.25678
226.017	3.26789
226.017	3.26789
225.928	3.27342
225.774	3.28572
225.586	3.30097
225.399	3.31569
225.244	3.32687
225.156	3.3317
225.156	3.3317
225.061	3.34117
224.964	3.35044
224.864	3.35953
224.764	3.36844
224.664	3.37717
224.565	3.38573
224.47	3.39413
224.377	3.40236
224.29	3.41044
224.208	3.41836
224.133	3.42613
224.066	3.43375
224.007	3.44123
223.959	3.44857
223.959	3.44857
223.922	3.45087
223.884	3.45311
223.842	3.45532
