Uv/Vis Spectrum: Allyl cyanide
Formula: C4H5N
CAS: 109-75-1
Boiling point: 116-120
Instrument: ZeissPMQ II
Origin: INSTITUTE OF ENERGY PROBLEMS OF CHEMICAL PHYSICS, RAS
Wavelength (nm)	Logarithm epsilon
182.1	3.659
182.17	3.657
182.24	3.653
182.31	3.648
182.38	3.644
182.46	3.637
182.54	3.63
182.63	3.622
182.71	3.614
182.81	3.606
182.94	3.595
183.09	3.582
183.23	3.569
183.37	3.557
183.5	3.544
183.66	3.531
183.8	3.518
183.96	3.504
184.09	3.493
184.23	3.48
184.38	3.468
184.53	3.454
184.67	3.443
184.83	3.429
184.99	3.415
185.14	3.402
185.3	3.388
185.47	3.373
185.61	3.361
185.74	3.35
185.87	3.337
185.98	3.324
186.17	3.302
186.4	3.273
186.61	3.246
186.93	3.205
187.23	3.169
187.52	3.135
187.82	3.096
188.12	3.056
188.42	3.015
188.72	2.975
189.03	2.934
189.33	2.904
189.63	2.864
189.94	2.815
190.24	2.768
190.55	2.734
190.86	2.698
191.17	2.659
191.48	2.623
191.79	2.589
192.1	2.553
192.42	2.518
192.73	2.493
193.04	2.463
193.36	2.433
193.68	2.408
194	2.384
194.32	2.363
194.64	2.342
194.96	2.322
195.28	2.31
195.6	2.295
195.93	2.282
196.25	2.273
196.58	2.269
196.91	2.263
197.24	2.261
197.57	2.258
197.9	2.254
198.23	2.252
198.57	2.252
198.9	2.252
199.24	2.252
199.57	2.254
199.91	2.256
200.25	2.263
200.59	2.269
200.93	2.269
201.28	2.261
201.62	2.252
201.96	2.243
202.31	2.241
202.66	2.241
203.01	2.241
203.36	2.25
203.71	2.252
204.06	2.256
204.41	2.25
204.77	2.239
205.12	2.229
205.48	2.22
205.84	2.211
206.2	2.201
206.56	2.192
206.92	2.184
207.28	2.177
207.65	2.169
208.02	2.158
208.38	2.145
208.75	2.126
209.12	2.105
209.49	2.086
209.86	2.06
210.24	2.039
210.61	2.017
210.99	1.992
211.37	1.966
211.75	1.943
212.13	1.922
212.51	1.898
212.89	1.877
213.26	1.854
213.58	1.835
214	1.812
214.38	1.789
214.78	1.766
215.22	1.739
215.62	1.717
216.03	1.692
216.4	1.67
216.8	1.644
217.18	1.619
217.6	1.589
218.01	1.555
218.41	1.521
218.81	1.487
219.16	1.456
219.63	1.412
220.04	1.369
220.45	1.323
220.86	1.269
221.28	1.231
