Uv/Vis Spectrum: Pyridine, 2-methyl-
Formula: C6H7N
CAS: 109-06-8
Melting point: - 66.7
Boiling point: 129.3
Instrument: Beckman quartz spectrophotometer and Unicam quartz spectrophotometer
Origin: INSTITUTE OF ENERGY PROBLEMS OF CHEMICAL PHYSICS, RAS
Wavelength (nm)	Logarithm epsilon
230.83	2.589
231.49	2.603
232.15	2.621
232.75	2.637
233.35	2.658
233.97	2.679
234.55	2.698
235.13	2.719
235.63	2.74
236.13	2.76
236.71	2.776
237.2	2.794
237.7	2.811
238.28	2.828
238.78	2.847
239.19	2.865
239.61	2.882
240.1	2.899
240.52	2.917
240.93	2.935
241.35	2.95
241.76	2.966
242.17	2.982
242.59	2.995
242.92	3.01
243.25	3.024
243.58	3.038
244	3.051
244.33	3.064
244.66	3.077
244.91	3.089
245.32	3.101
245.65	3.112
245.98	3.124
246.31	3.135
246.65	3.145
246.98	3.156
247.31	3.166
247.64	3.176
247.98	3.186
248.3	3.197
248.55	3.206
248.88	3.215
249.21	3.224
249.46	3.234
249.79	3.242
250.21	3.251
250.54	3.259
250.95	3.266
251.45	3.273
251.86	3.281
252.36	3.287
252.77	3.294
253.19	3.302
253.6	3.309
253.85	3.316
254.18	3.323
254.51	3.33
255.01	3.339
255.42	3.345
256	3.349
256.75	3.349
257.41	3.346
257.99	3.341
258.65	3.337
259.32	3.334
259.98	3.337
260.48	3.343
261.22	3.344
261.88	3.341
262.55	3.337
262.73	3.333
262.96	3.327
263.15	3.319
263.36	3.311
263.59	3.299
263.79	3.291
263.92	3.286
264.13	3.275
264.37	3.266
264.62	3.258
264.86	3.25
265.11	3.241
265.61	3.235
266.27	3.232
266.93	3.226
267.37	3.221
267.93	3.21
268.17	3.203
268.43	3.192
268.63	3.181
268.79	3.171
269	3.158
269.15	3.147
269.34	3.136
269.5	3.124
269.67	3.111
269.81	3.098
269.97	3.084
270.16	3.07
270.32	3.056
270.5	3.043
270.66	3.027
270.83	3.012
271.07	2.995
271.24	2.978
271.49	2.96
271.65	2.941
271.9	2.924
272.15	2.906
272.4	2.885
272.65	2.865
272.9	2.844
273.15	2.823
273.41	2.8
273.64	2.778
273.97	2.747
274.22	2.719
274.55	2.69
274.88	2.659
275.22	2.625
275.63	2.589
275.96	2.553
276.38	2.51
276.79	2.468
277.29	2.429
277.78	2.385
