Uv/Vis Spectrum: Pyrrole
Formula: C4H5N
CAS: 109-97-7
Melting point: -23.4
Boiling point: 129.7
Instrument: Beckman DU
Origin: INSTITUTE OF ENERGY PROBLEMS OF CHEMICAL PHYSICS, RAS
Wavelength (nm)	Logarithm epsilon
260.718	2.97899
261.286	2.97942
261.861	2.9798
262.065	2.98088
262.744	2.98202
263.424	2.98311
264.104	2.98416
264.307	2.98512
264.411	2.98514
264.517	2.98516
264.629	2.98518
264.846	2.98614
265.486	2.98726
266.128	2.98832
266.769	2.98936
267.191	2.99046
267.474	2.99051
267.761	2.99057
268.053	2.99063
268.257	2.99157
268.584	2.99246
268.853	2.99367
269.112	2.99454
269.534	2.99552
270.729	2.99871
271.56	3.00088
272.134	3.0023
272.556	3.00323
272.933	3.00393
273.373	3.00465
273.577	3.00556
274.076	3.00685
274.574	3.00814
275.073	3.00942
275.289	3.01043
275.608	3.01143
275.928	3.01238
276.247	3.0133
276.451	3.01419
277.112	3.01568
277.827	3.01818
278.547	3.021
279.22	3.02348
279.423	3.02445
279.602	3.02508
279.78	3.02566
279.959	3.02622
280.598	3.02809
281.058	3.02931
281.518	3.03053
281.978	3.03174
282.194	3.0327
282.661	3.03371
283.083	3.03511
283.575	3.03632
283.778	3.03716
284.548	3.03945
284.936	3.0404
285.274	3.04086
285.491	3.0417
286.132	3.04368
286.723	3.04539
287.296	3.04684
287.882	3.04804
288.51	3.04902
289.214	3.0498
289.755	3.04989
290.949	3.0492
291.601	3.04857
292.273	3.04746
292.441	3.04709
292.506	3.04711
292.574	3.04712
292.647	3.04713
292.868	3.04637
293.438	3.04568
294.009	3.04508
294.581	3.04454
295.155	3.04409
295.73	3.04369
296.307	3.04336
296.885	3.04308
297.464	3.04284
298.045	3.04265
298.627	3.04249
299.211	3.04236
299.796	3.04225
300.383	3.04216
300.971	3.04208
301.56	3.04201
301.56	3.04201
301.858	3.04042
302.305	3.03884
302.867	3.03729
303.51	3.0358
304.202	3.03437
304.909	3.03304
305.598	3.03183
306.236	3.03075
306.789	3.02982
307.224	3.02908
307.392	3.02859
307.637	3.02864
307.885	3.02868
308.139	3.02873
308.36	3.02794
309.017	3.02757
309.646	3.02703
310.252	3.02633
310.841	3.02548
311.418	3.02448
311.99	3.02335
312.561	3.02208
313.139	3.02068
313.728	3.01916
314.334	3.01752
314.964	3.01577
315.623	3.01392
315.791	3.01352
315.859	3.01354
315.933	3.01355
316.01	3.01356
316.218	3.01275
316.969	3.01172
317.411	3.01056
317.733	3.00981
317.837	3.00939
317.94	3.00941
318.046	3.00943
318.158	3.00945
318.483	3.00865
319.248	3.00779
320.02	3.00688
320.795	3.00594
