Uv/Vis Spectrum: 3-Pyridinol
Formula: C5H5NO
CAS: 109-00-2
Melting point: 125-128
Instrument: n.i.g.
Origin: INSTITUTE OF ENERGY PROBLEMS OF CHEMICAL PHYSICS, RAS
Wavelength (nm)	Logarithm epsilon
220.24	3.734
220.53	3.73
220.86	3.721
221.47	3.708
222.09	3.69
222.7	3.674
223.31	3.653
223.93	3.63
224.54	3.603
225.16	3.575
225.77	3.542
226.39	3.51
227	3.468
227.62	3.43
228.23	3.392
228.85	3.343
229.46	3.296
230.07	3.225
230.69	3.151
231.3	3.1
231.92	3.049
232.53	2.991
233.15	2.942
233.76	2.886
234.38	2.834
234.89	2.799
235.61	2.748
236.22	2.69
236.8	2.655
237.45	2.605
238.06	2.565
238.57	2.532
239.29	2.498
239.97	2.48
240.67	2.465
241.28	2.455
241.84	2.45
242.39	2.448
242.95	2.448
243.65	2.455
244.21	2.473
244.82	2.498
245.44	2.522
246.05	2.544
246.67	2.565
247.34	2.582
247.9	2.602
248.51	2.623
249.11	2.647
249.74	2.674
250.32	2.697
251.02	2.717
251.58	2.734
252.23	2.757
252.81	2.774
253.45	2.797
254.04	2.811
254.66	2.834
255.26	2.854
255.87	2.874
256.43	2.897
257.08	2.914
257.73	2.934
258.34	2.957
258.9	2.977
259.46	2.999
260.16	3.026
260.81	3.051
261.42	3.075
262.03	3.106
262.64	3.129
263.19	3.159
263.87	3.197
264.49	3.225
265.1	3.251
265.72	3.276
266.33	3.3
266.95	3.326
267.56	3.353
268.18	3.383
268.79	3.413
269.4	3.436
270.02	3.463
270.63	3.486
271.25	3.498
271.86	3.51
272.48	3.524
273.09	3.535
273.71	3.546
274.32	3.555
274.93	3.565
275.55	3.573
276.16	3.577
276.78	3.583
277.39	3.591
278.01	3.593
278.62	3.599
279.24	3.599
279.85	3.599
280.47	3.599
281.08	3.595
282.31	3.585
282.92	3.575
283.54	3.567
284.15	3.552
284.77	3.531
285.38	3.51
286	3.473
286.61	3.447
287.23	3.416
287.84	3.38
288.45	3.35
289.21	3.296
289.77	3.256
290.3	3.207
290.91	3.151
291.53	3.094
292.1	3.041
292.66	2.959
293.37	2.823
293.99	2.674
294.9	2.475
295.69	2.325
295.88	2.288
296.11	2.243
296.34	2.198
296.62	2.146
296.85	2.088
297.09	2.011
297.27	1.906
297.37	1.824
297.6	1.697
297.97	1.514
298.58	1.245
