Uv/Vis Spectrum: Cyclohexene
Formula: C6H10
CAS: 110-83-8
Melting point: -103.5
Boiling point: 82.9
Instrument: Hilger spectrograph
Origin: INSTITUTE OF ENERGY PROBLEMS OF CHEMICAL PHYSICS, RAS
Wavelength (nm)	Logarithm epsilon
214.416	1.55572
214.209	1.61981
214.148	1.63119
213.942	1.67828
213.659	1.74868
213.342	1.83142
213.032	1.91553
212.773	1.99004
212.676	2.02026
212.27	2.10869
211.885	2.19005
211.533	2.26363
211.229	2.32875
210.988	2.3847
210.782	2.42251
210.371	2.49815
209.96	2.57389
209.547	2.64977
209.495	2.64976
209.381	2.64975
209.381	2.65319
209.381	2.66046
209.165	2.64122
208.781	2.60512
208.607	2.60437
208.259	2.60335
208.087	2.59749
207.702	2.58701
207.507	2.587
207.261	2.59081
207.213	2.59479
207.108	2.60322
207.031	2.60493
206.869	2.60834
206.67	2.60733
206.272	2.60484
206.054	2.60929
205.338	2.63301
204.278	2.69796
203.431	2.74782
203.243	2.75574
203.075	2.75474
202.986	2.754
202.631	2.72314
202.485	2.71452
202.081	2.70406
201.959	2.69861
201.355	2.70437
200.839	2.71433
200.517	2.72501
200.355	2.73055
199.835	2.7575
199.571	2.77116
198.824	2.82794
198.29	2.87426
197.843	2.87167
197.601	2.87075
197.244	2.87401
196.633	2.87406
195.82	2.9004
195.461	2.90947
195.015	2.95099
194.789	2.97194
194.511	3.00908
194.297	3.03915
194.11	3.09496
194.016	3.1231
193.982	3.13166
193.947	3.12524
193.907	3.12651
193.841	3.12479
193.749	3.12477
193.699	3.12477
193.59	3.13174
193.531	3.13546
193.353	3.1924
193.252	3.24382
193.066	3.26738
192.968	3.27935
192.837	3.35722
192.83	3.38987
192.599	3.398
192.483	3.40226
192.085	3.47441
191.969	3.4926
191.77	3.49612
191.666	3.49812
191.576	3.5097
191.527	3.51567
191.166	3.51693
190.982	3.51774
190.468	3.5888
190.209	3.62433
189.719	3.62426
189.472	3.62423
189.095	3.65132
188.913	3.66143
188.872	3.67085
188.849	3.67556
188.097	3.73652
187.725	3.77353
187.381	3.77091
187.209	3.7696
187.023	3.77926
186.951	3.78585
186.562	3.79074
186.37	3.79091
186.244	3.78489
186.178	3.78188
185.775	3.78183
185.571	3.7818
185.384	3.7925
185.287	3.79804
184.834	3.80775
184.617	3.81551
184.246	3.81645
184.058	3.81715
183.621	3.83724
183.403	3.84748
182.866	3.8474
182.599	3.84736
182.228	3.85673
182.044	3.86142
181.859	3.87212
181.763	3.87766
181.404	3.88319
181.221	3.88615
180.819	3.90752
180.615	3.9182
180.497	3.91916
180.434	3.91988
180.073	3.90441
179.894	3.89667
179.599	3.88964
179.449	3.88589
179.132	3.88584
178.971	3.88582
178.741	3.89276
178.622	3.89648
178.423	3.89645
178.324	3.89643
177.806	3.88172
177.621	3.87876
177.199	3.87869
176.984	3.87866
175.975	3.89954
175.608	3.90672
175.382	3.90517
175.232	3.90152
174.75	3.88441
173.858	3.86017
173.307	3.85066
173.029	3.8459
172.385	3.84481
172.062	3.84403
171.99	3.84843
171.95	3.85087
171.478	3.85777
171.243	3.86146
171.022	3.87162
170.735	3.87938
170.539	3.86103
170.439	3.84548
170.333	3.84546
170.277	3.84545
170.016	3.8701
169.877	3.88823
169.276	3.88813
168.977	3.88808
168.835	3.88333
168.761	3.88076
168.59	3.88073
168.502	3.88072
168.413	3.88543
168.369	3.88798
168.266	3.91281
168.21	3.92523
168.108	3.92521
168.053	3.9252
167.571	3.90179
167.379	3.89295
167.054	3.89191
166.888	3.89115
166.702	3.90312
166.609	3.9091
165.321	3.90887
164.681	3.90876
164.614	3.91218
164.278	3.91383
163.741	3.90523
162.727	3.89384
162.155	3.87911
162.117	3.87616
161.788	3.86804
161.588	3.85636
161.588	3.86109
161.588	3.86364
160.992	3.85282
160.699	3.85105
160.23	3.84725
159.445	3.84696
159.034	3.83685
158.463	3.82578
157.405	3.81686
156.361	3.80811
155.774	3.80169
155.537	3.80421
155.418	3.80547
