Uv/Vis Spectrum: Dihydropyran
Formula: C5H8O
CAS: 110-87-2
Boiling point: 86
Instrument: n.i.g.
Origin: INSTITUTE OF ENERGY PROBLEMS OF CHEMICAL PHYSICS, RAS
Wavelength (nm)	Logarithm epsilon
206.374	3.6425
206.512	3.6397
206.629	3.63732
206.737	3.63517
206.844	3.63307
206.962	3.63083
207.1	3.62827
207.268	3.62517
207.477	3.62134
207.736	3.61655
208.055	3.61059
208.055	3.61059
208.198	3.60751
208.341	3.6044
208.483	3.60127
208.626	3.59812
208.769	3.59494
208.911	3.59173
209.054	3.5885
209.196	3.58523
209.339	3.58195
209.481	3.57863
209.624	3.57529
209.766	3.57192
209.909	3.56852
210.051	3.56508
210.193	3.56162
210.336	3.55814
210.478	3.55461
210.62	3.55106
210.763	3.54748
210.905	3.54386
211.047	3.54021
211.19	3.53653
211.332	3.53282
211.474	3.52907
211.616	3.52528
211.758	3.52147
211.9	3.51761
212.043	3.51372
212.185	3.50979
212.327	3.50582
212.469	3.50181
212.611	3.49777
212.753	3.49368
212.895	3.48956
213.037	3.48539
213.179	3.48118
213.321	3.47693
213.464	3.47263
213.606	3.46829
213.748	3.46391
213.89	3.45947
214.032	3.45499
214.174	3.45046
214.315	3.44589
214.458	3.44126
214.599	3.43658
214.741	3.43185
214.883	3.42706
215.025	3.42222
215.167	3.41733
215.309	3.41237
215.451	3.40736
215.593	3.40229
215.735	3.39716
215.877	3.39196
216.018	3.38671
216.16	3.38138
216.302	3.37599
216.444	3.37053
216.586	3.36501
216.728	3.35941
216.87	3.35373
217.012	3.34798
217.153	3.34215
217.295	3.33624
217.437	3.33025
217.579	3.32418
217.721	3.31802
217.863	3.31177
218.004	3.30543
218.146	3.299
218.288	3.29246
218.43	3.28583
218.572	3.2791
218.714	3.27226
218.855	3.26531
218.997	3.25825
219.139	3.25107
219.281	3.24378
219.423	3.23636
219.565	3.22881
219.707	3.22113
219.848	3.21331
219.99	3.20535
220.132	3.19724
220.274	3.18898
220.416	3.18056
220.558	3.17198
220.7	3.16322
220.841	3.15429
220.983	3.14517
221.125	3.13586
221.267	3.12635
221.409	3.11662
221.551	3.10668
221.693	3.09651
221.835	3.08609
221.977	3.07543
222.119	3.0645
222.261	3.05329
222.403	3.04178
222.545	3.02997
222.687	3.01784
222.829	3.00536
222.971	2.99252
223.113	2.97929
223.255	2.96565
223.397	2.95157
223.539	2.93703
223.681	2.922
