Uv/Vis Spectrum: 1-Pentanethiol
Formula: C5H12S
CAS: 110-66-7
Melting point: -75.7
Boiling point: 126.6
Instrument: Beckman DU
Origin: INSTITUTE OF ENERGY PROBLEMS OF CHEMICAL PHYSICS, RAS
Wavelength (nm)	Logarithm epsilon
210.319	2.54341
210.692	2.513
210.917	2.49964
211.185	2.49189
211.867	2.44869
211.985	2.44867
212.104	2.44864
212.223	2.44862
212.223	2.44862
212.375	2.43849
212.587	2.4276
212.738	2.41415
213.09	2.40124
213.233	2.37698
213.537	2.35996
214.395	2.34301
214.395	2.34301
215.065	2.30663
216.207	2.26932
217.707	2.24797
217.707	2.24797
217.891	2.23764
218.214	2.22683
218.578	2.21343
218.578	2.21343
219.103	2.21208
219.629	2.21063
220.154	2.209
220.425	2.20688
221.68	2.21086
223.388	2.21683
225.339	2.22275
227.324	2.2266
229.132	2.22634
230.553	2.21993
230.553	2.21993
230.671	2.2166
231.105	2.21265
232.228	2.20472
233.631	2.19162
234.295	2.18363
234.967	2.17564
235.642	2.16764
236.959	2.14793
237.195	2.14499
237.432	2.14205
237.668	2.1391
239.406	2.10896
239.782	2.10102
240.165	2.09308
240.552	2.08514
241.865	2.05259
242.324	2.0412
242.791	2.02963
243.262	2.01796
244.657	1.97918
244.914	1.97127
245.179	1.96335
245.447	1.95543
246.572	1.91836
246.891	1.90627
247.209	1.89409
247.527	1.88173
248.316	1.85384
248.601	1.84176
248.89	1.82958
249.187	1.81723
250.411	1.77185
250.602	1.75919
250.78	1.75196
251.097	1.74398
252.136	1.70278
252.321	1.69274
252.626	1.68038
252.922	1.66618
253.708	1.62959
253.978	1.62031
254.225	1.6078
254.662	1.58882
255.447	1.54767
255.656	1.53407
255.959	1.51751
256.315	1.50444
257	1.46993
257.234	1.45858
257.468	1.44705
257.702	1.43542
258.385	1.39678
258.64	1.3818
258.902	1.36674
259.168	1.35149
259.767	1.31492
259.905	1.30413
260.05	1.29333
260.199	1.28254
260.982	1.23724
261.182	1.22518
261.381	1.21303
261.581	1.20069
262.364	1.15539
262.531	1.14334
262.701	1.13119
262.879	1.11885
263.577	1.07357
263.744	1.06151
263.914	1.04937
264.092	1.03703
264.79	0.991749
264.989	0.978336
265.189	0.96474
265.388	0.951051
266.17	0.901616
266.369	0.886654
266.568	0.871596
266.767	0.856354
267.362	0.80696
267.528	0.79407
267.698	0.781094
267.876	0.767927
268.739	0.707706
268.905	0.694298
269.075	0.680707
269.252	0.667023
269.781	0.621778
269.947	0.607541
270.116	0.59312
270.294	0.578605
270.808	0.539991
270.974	0.526585
271.143	0.512991
271.321	0.499302
271.831	0.449509
272.031	0.437449
272.231	0.42529
272.43	0.412947
273.041	0.358981
273.286	0.340385
273.376	0.330393
273.386	0.320396
274.065	0.268905
274.23	0.251784
274.399	0.234467
274.575	0.217036
275.105	0.174292
275.271	0.160589
275.44	0.146872
275.618	0.133187
275.948	0.105374
276.237	0.070592
