Uv/Vis Spectrum: Pyridine
Formula: C5H5N
CAS: 110-86-1
Melting point: -41.6
Boiling point: 115.2
Instrument: Zeiss PMQII
Origin: INSTITUTE OF ENERGY PROBLEMS OF CHEMICAL PHYSICS, RAS
Wavelength (nm)	Logarithm epsilon
390.394	2.88018
390.3	2.92966
390.203	2.97328
390.103	3.01207
389.999	3.0471
389.889	3.07939
389.773	3.11002
389.65	3.14
389.519	3.1704
389.379	3.20227
389.23	3.23664
389.069	3.27456
388.897	3.31709
388.713	3.36527
388.515	3.42014
388.303	3.48275
388.303	3.48275
387.767	3.50569
387.327	3.5163
386.605	3.52366
386.605	3.52366
386.03	3.52238
385.457	3.52093
384.885	3.51938
384.885	3.51938
384.138	3.48294
382.941	3.46089
378.973	3.44792
378.973	3.44792
376.885	3.39733
375.75	3.34139
374.911	3.28459
374.911	3.28459
374.371	3.28468
373.823	3.28476
373.256	3.28484
373.256	3.28484
372.329	3.33615
371.462	3.38633
370.896	3.43639
370.868	3.48733
370.868	3.48733
370.484	3.50519
369.923	3.54733
369.212	3.60487
368.38	3.66894
367.454	3.73066
367.454	3.73066
367.072	3.7344
366.692	3.73805
366.311	3.74152
366.311	3.74152
365.796	3.74106
365.283	3.74043
364.771	3.7397
364.771	3.7397
362.936	3.70636
360.772	3.68605
356.894	3.68099
356.894	3.68099
356.327	3.69926
355.993	3.7269
355.604	3.7876
355.604	3.7876
355.137	3.83182
354.644	3.91001
354.179	3.95423
354.179	3.95423
353.871	4.01408
353.562	4.05092
353.358	4.0924
353.358	4.0924
352.884	4.09483
352.41	4.09707
352.4	4.14145
352.38	4.12872
352.36	4.11599
352.341	4.10326
351.938	4.09922
351.938	4.09922
350.869	4.0637
350.4	4.02386
350.263	3.98121
350.197	3.93727
349.939	3.89353
349.23	3.85152
347.817	3.81275
347.817	3.81275
346.283	3.81195
345.139	3.814
343.666	3.82169
343.666	3.82169
343.427	3.82048
343.171	3.81919
342.907	3.81772
342.907	3.81772
342.63	3.78154
342.183	3.74301
340.988	3.70754
340.988	3.70754
340.422	3.70845
339.841	3.70927
339.254	3.70991
339.254	3.70991
338.791	3.72447
338.206	3.76643
337.003	3.87178
337.003	3.87178
336.458	3.87135
335.906	3.87073
335.339	3.87003
335.339	3.87003
334.758	3.82376
334.056	3.77641
333.37	3.72863
332.834	3.68105
332.583	3.63432
332.583	3.63432
332.336	3.63437
332.089	3.63441
331.843	3.63446
331.843	3.63446
331.652	3.62411
331.462	3.61357
331.272	3.60293
331.272	3.60293
330.851	3.60219
330.43	3.60145
330.011	3.60071
330.011	3.60071
329.661	3.60653
329.296	3.61235
328.925	3.61817
328.925	3.61817
328.51	3.61772
328.096	3.61709
327.682	3.61636
327.682	3.61636
326.363	3.52081
325.552	3.46842
325.079	3.44269
324.775	3.42713
324.775	3.42713
323.164	3.43449
322.338	3.44919
321.564	3.47255
321.564	3.47255
321.102	3.47264
320.641	3.47274
320.182	3.47283
320.182	3.47283
319.445	3.42589
318.696	3.37892
317.881	3.33188
316.947	3.28475
315.841	3.2375
315.841	3.2375
314.603	3.21229
313.374	3.18708
312.155	3.16187
312.155	3.16187
311.39	3.12528
310.797	3.08675
309.871	3.01323
309.871	3.01323
308.616	3.01297
307.365	3.01253
307.351	3.0183
307.161	3.01834
306.958	3.01838
306.748	3.01843
306.11	3.012
306.11	3.012
305.015	2.96598
303.928	2.92501
302.692	2.88762
301.16	2.85232
299.188	2.81762
296.647	2.78206
296.647	2.78206
295.895	2.76169
295.147	2.74133
294.402	2.72097
294.402	2.72097
293.076	2.72004
291.757	2.71902
290.436	2.71783
290.436	2.71783
290.052	2.71093
289.669	2.70393
289.286	2.69675
289.017	2.69476
288.457	2.6949
287.9	2.69504
287.345	2.69518
287.345	2.69518
286.959	2.70461
286.567	2.71386
286.165	2.72301
286.165	2.72301
285.949	2.72387
285.722	2.72465
285.489	2.72524
285.489	2.72524
284.027	2.76633
282.27	2.79721
280.223	2.8208
277.895	2.84001
275.297	2.85777
275.297	2.85777
273.684	2.88847
272.105	2.92089
270.574	2.95467
269.104	2.98944
267.709	3.02486
266.401	3.06055
266.358	3.04971
266.356	3.04712
266.353	3.04436
266.351	3.0415
265.191	3.09615
264.093	3.13132
263.168	3.14022
262.933	3.17377
262.658	3.1992
262.107	3.23832
262.107	3.23832
261.442	3.24951
261.25	3.27334
261.151	3.29613
261.151	3.29613
260.524	3.33278
260.522	3.37413
260.471	3.41541
259.702	3.45187
259.702	3.45187
259.154	3.53013
258.822	3.57427
258.62	3.61819
258.62	3.61819
258.369	3.64817
258.025	3.70999
257.683	3.77181
257.434	3.80179
257.434	3.80179
257.151	3.89968
256.888	3.99012
256.644	4.07346
256.42	4.15001
256.213	4.22014
256.023	4.28416
255.849	4.34242
255.69	4.39526
255.546	4.443
255.416	4.486
255.299	4.52458
255.193	4.55908
255.1	4.58984
255.017	4.6172
254.943	4.64149
254.879	4.66305
254.823	4.68222
254.775	4.69934
254.734	4.71473
254.699	4.72874
254.669	4.74171
254.644	4.75397
254.623	4.76586
254.606	4.77771
254.59	4.78987
254.577	4.80267
254.577	4.80267
254.337	4.84689
254.084	4.92507
253.845	4.96929
253.845	4.96929
253.642	5.05858
253.49	5.124
253.373	5.17115
253.275	5.20561
253.18	5.23299
253.072	5.25885
252.935	5.28881
252.935	5.28881
252.664	5.2897
252.385	5.29051
252.101	5.29113
252.101	5.29113
251.822	5.25006
251.559	5.20873
251.296	5.16719
251.014	5.12552
250.695	5.08375
250.321	5.04195
249.876	5.00018
249.876	5.00018
249.211	5.00098
248.625	5.00386
248.023	5.01149
248.023	5.01149
247.825	5.01031
247.623	5.00904
247.412	5.00759
247.412	5.00759
246.257	4.88793
245.782	4.84336
245.572	4.83567
245.572	4.83567
244.934	4.86043
244.576	4.88528
244.148	4.92983
244.083	4.91998
244.014	4.91004
243.935	4.89992
243.935	4.89992
243.723	4.89588
243.519	4.85496
243.291	4.81348
243.042	4.77158
242.772	4.72943
242.483	4.68715
242.174	4.64489
241.847	4.6028
241.847	4.6028
241.311	4.57947
240.798	4.56261
239.871	4.53778
239.871	4.53778
239.34	4.49607
238.803	4.45436
238.265	4.41265
238.265	4.41265
237.463	4.38769
236.517	4.35996
235.605	4.33066
235.605	4.33066
235.533	4.28409
235.217	4.23932
234.696	4.19573
234.013	4.15268
233.209	4.10954
232.326	4.06569
232.326	4.06569
231.233	4.02823
230.119	3.98751
228.928	3.94728
227.608	3.91129
226.11	3.88328
226.11	3.88328
225.604	3.88349
225.097	3.8837
224.585	3.88391
224.585	3.88391
223.314	3.91906
222.1	3.954
220.942	3.99185
220.942	3.99185
220.787	3.99397
220.628	3.99609
220.463	3.99822
220.463	3.99822
220.09	4.01912
219.292	4.04084
218.575	4.05861
218.575	4.05861
218.092	4.05938
217.626	4.06353
216.782	4.0746
216.782	4.0746
214.876	4.07761
212.947	4.07993
211.012	4.08134
211.012	4.08134
209.46	4.06505
207.91	4.03836
206.919	3.99826
206.919	3.99826
206.061	3.97881
205.108	3.9481
204.123	3.91054
203.173	3.87054
202.317	3.8325
