Uv/Vis Spectrum: Furan
Formula: C4H4O
CAS: 110-00-9
Boiling point: 32
Instrument: Hilger Uvispek
Origin: INSTITUTE OF ENERGY PROBLEMS OF CHEMICAL PHYSICS, RAS
Wavelength (nm)	Logarithm epsilon
200.95	3.929
201.04	3.929
201.13	3.931
201.22	3.931
201.31	3.931
201.4	3.931
201.49	3.933
201.58	3.933
201.67	3.933
201.76	3.935
201.85	3.935
202.3	3.935
202.75	3.937
203.2	3.944
203.66	3.946
204.11	3.948
204.57	3.952
205.03	3.957
205.5	3.957
205.96	3.959
206.43	3.961
206.9	3.961
207.37	3.961
207.85	3.961
208.32	3.959
208.8	3.959
209.28	3.957
209.77	3.952
210.25	3.948
210.74	3.944
211.23	3.937
211.72	3.933
212.22	3.927
212.71	3.916
213.21	3.908
213.71	3.897
214.22	3.886
214.72	3.875
215.23	3.863
215.74	3.848
216.26	3.831
216.77	3.811
217.29	3.79
217.81	3.766
218.33	3.734
218.86	3.694
219.39	3.651
219.92	3.593
220.45	3.531
220.99	3.459
221.53	3.424
222.07	3.403
222.61	3.39
223.16	3.382
223.71	3.373
224.26	3.365
224.81	3.356
225.37	3.343
225.93	3.315
226.5	3.268
227.06	3.241
227.35	3.202
227.63	3.121
227.74	3.059
227.86	3.014
227.97	2.941
228.09	2.883
228.2	2.841
228.32	2.779
228.43	2.73
228.55	2.689
228.66	2.638
228.78	2.597
228.89	2.554
229.01	2.505
229.12	2.443
229.24	2.39
229.35	2.349
229.47	2.298
229.59	2.246
229.7	2.195
229.82	2.146
229.93	2.097
229.99	2.071
230.04	2.045
230.09	2.019
230.17	1.994
230.24	1.961
230.33	1.923
230.41	1.891
230.53	1.858
230.65	1.823
230.75	1.793
230.87	1.757
230.99	1.708
231.1	1.658
231.22	1.601
231.34	1.547
231.46	1.475
231.57	1.423
231.69	1.363
231.81	1.316
231.93	1.257
232.05	1.205
232.17	1.152
232.28	1.105
