Uv/Vis Spectrum: Cyclohexane
Formula: C6H12
CAS: 110-82-7
Melting point: 6.6
Boiling point: 80.7
Instrument: Hilger prism spectrograph
Origin: INSTITUTE OF ENERGY PROBLEMS OF CHEMICAL PHYSICS, RAS
Wavelength (nm)	Logarithm epsilon
176.229	1.50594
176.085	1.5331
175.938	1.56045
175.79	1.58789
175.79	1.58789
175.622	1.6439
175.476	1.695
175.354	1.73497
175.257	1.7576
175.257	1.7576
175.188	1.76102
175.12	1.76453
175.051	1.76824
175.051	1.76824
174.984	1.79316
174.914	1.81809
174.843	1.84301
174.843	1.84301
174.779	1.84471
174.713	1.8465
174.645	1.84848
174.645	1.84848
174.495	1.86753
174.377	1.88498
174.189	1.91578
174.189	1.91578
173.885	1.91573
173.697	1.91661
173.465	1.91919
173.465	1.91919
173.25	1.93578
173.068	1.95229
172.763	1.98288
172.763	1.98288
172.538	2.02795
172.312	2.07312
172.083	2.11848
172.083	2.11848
171.92	2.17274
171.838	2.20371
171.77	2.23795
171.77	2.23795
171.735	2.23793
171.704	2.28096
171.698	2.2379
171.687	2.26644
171.672	2.25211
171.659	2.23788
171.659	2.23788
171.495	2.23777
171.423	2.23946
171.352	2.24125
171.28	2.24322
171.28	2.24322
171.169	2.27212
171.056	2.30121
170.942	2.33039
170.942	2.33039
170.889	2.33382
170.835	2.33734
170.778	2.34105
170.778	2.34105
170.591	2.34137
170.404	2.34178
170.217	2.34239
170.217	2.34239
170.133	2.36305
170.075	2.38344
169.993	2.42103
169.993	2.42103
169.823	2.46321
169.651	2.50544
169.478	2.54775
169.304	2.59018
169.304	2.59018
169.26	2.59144
169.215	2.5927
169.17	2.59396
169.17	2.59396
169.161	2.61044
169.151	2.62712
169.138	2.64388
169.095	2.59004
169.034	2.57506
168.974	2.56027
168.918	2.54558
168.918	2.54558
168.88	2.54426
168.844	2.54294
168.811	2.54163
168.703	2.54328
168.663	2.54553
168.62	2.54797
168.576	2.55051
168.576	2.55051
168.434	2.60826
168.348	2.63744
168.245	2.66308
168.245	2.66308
168.066	2.66195
167.876	2.65995
167.645	2.65879
167.645	2.65879
167.613	2.6605
167.58	2.66231
167.544	2.66431
167.544	2.66431
167.333	2.70557
167.121	2.74695
166.91	2.7884
166.696	2.8299
166.696	2.8299
166.562	2.86426
166.428	2.89872
166.294	2.93337
166.294	2.93337
166.263	2.93379
166.231	2.93431
166.196	2.93502
166.196	2.93502
166.195	2.94105
166.194	2.94708
166.193	2.9531
166.141	2.93154
166.074	2.92775
166.008	2.92414
165.941	2.92064
165.892	2.9206
165.812	2.92095
165.739	2.92368
165.61	2.93117
165.61	2.93117
165.328	2.96558
165.048	3.00002
164.768	3.0345
164.488	3.06904
164.21	3.10366
164.21	3.10366
163.873	3.13901
163.536	3.17448
163.198	3.21002
162.862	3.24561
162.862	3.24561
162.41	3.27956
162.075	3.30458
161.796	3.32506
161.512	3.34535
161.164	3.36983
160.693	3.40286
160.693	3.40286
160.341	3.42511
159.991	3.44755
159.642	3.47008
159.642	3.47008
158.718	3.51818
158.235	3.54305
158.029	3.55263
157.937	3.55487
157.937	3.55487
157.673	3.56621
157.543	3.57258
157.431	3.57945
157.431	3.57945
157.165	3.58743
156.898	3.59551
156.63	3.60378
156.63	3.60378
156.078	3.62721
155.791	3.6388
155.662	3.64563
155.662	3.64563
155.464	3.6502
155.255	3.6558
154.927	3.6614
154.927	3.6614
154.777	3.66689
154.554	3.67184
154.067	3.68051
