Uv/Vis Spectrum: Piperidine
Formula: C5H11N
CAS: 110-89-4
Melting point: -11.03
Boiling point: 106.2
Instrument: Fluorite prism vacuum spectrograph or Beckman DU
Origin: INSTITUTE OF ENERGY PROBLEMS OF CHEMICAL PHYSICS, RAS
Wavelength (nm)	Logarithm epsilon
240.635	2.0572
239.993	2.0572
239.355	2.0572
238.72	2.0572
236.921	2.11865
236.808	2.12852
236.695	2.13746
236.582	2.14481
234.481	2.19566
234.112	2.20395
233.732	2.21147
233.348	2.21768
231.52	2.23863
231.08	2.23863
230.629	2.23863
230.175	2.23863
228.739	2.27066
228.421	2.28006
228.099	2.28926
227.766	2.29826
226.256	2.33459
226.075	2.33246
225.895	2.32986
225.715	2.32632
224.436	2.39031
224.13	2.40275
223.819	2.41485
223.498	2.42662
222.444	2.47817
222.155	2.48299
221.993	2.48937
221.821	2.50251
220.586	2.5512
220.462	2.56343
220.333	2.57507
220.193	2.58588
218.686	2.66452
218.257	2.67577
218.07	2.6837
217.964	2.69507
217.079	2.7605
216.984	2.77632
216.889	2.79143
216.794	2.80573
215.427	2.87239
215.356	2.87476
215.286	2.87712
215.216	2.87947
214.54	2.91482
214.072	2.94062
213.756	2.95658
213.476	2.97511
212.925	3.01067
212.856	3.01269
212.788	3.01452
212.719	3.01625
212.536	3.04193
212.484	3.04473
212.422	3.04752
212.354	3.05029
211.968	3.07259
211.916	3.07584
211.853	3.0789
211.786	3.08186
211.492	3.10681
211.469	3.10844
211.44	3.1099
211.402	3.11129
211.019	3.13335
211.019	3.13617
211.019	3.13884
211.019	3.14142
210.66	3.16233
210.66	3.16477
210.66	3.16718
210.66	3.16959
210.28	3.18922
210.28	3.19093
210.28	3.19256
210.28	3.19406
209.723	3.21454
209.723	3.21615
209.723	3.21769
209.723	3.21911
209.368	3.23641
209.368	3.23864
209.368	3.24075
209.368	3.24279
208.993	3.25724
208.942	3.26009
208.881	3.26282
208.816	3.26549
208.443	3.27921
208.443	3.28123
208.443	3.28314
208.443	3.28499
208.092	3.29812
208.092	3.30057
208.092	3.303
208.092	3.30542
207.721	3.31795
207.671	3.32029
207.611	3.32261
207.547	3.32492
207.351	3.33956
207.302	3.34157
207.242	3.34353
207.178	3.34539
206.81	3.35859
206.81	3.35969
206.81	3.36071
206.81	3.36168
206.465	3.37589
206.416	3.37794
206.357	3.37997
206.293	3.382
206.1	3.39253
206.05	3.39504
205.992	3.39753
205.928	3.4
205.757	3.41011
205.693	3.412
205.629	3.41389
205.565	3.41576
205.394	3.42551
205.345	3.42696
205.287	3.42832
205.224	3.42965
204.948	3.44247
204.926	3.44322
204.899	3.4439
204.863	3.44454
204.335	3.46763
204.286	3.46894
204.228	3.47018
204.166	3.47139
203.998	3.47998
203.935	3.48159
203.872	3.4832
203.809	3.48479
203.641	3.49441
203.593	3.49564
203.536	3.49681
203.474	3.49794
203.286	3.50603
203.238	3.50754
203.181	3.50906
203.119	3.51056
201.918	3.5289
201.809	3.52981
201.691	3.53073
201.569	3.53164
199.136	3.54962
199.055	3.55
198.97	3.55034
198.876	3.55062
196.43	3.54649
196.41	3.54599
196.385	3.54548
196.352	3.54498
195.461	3.53913
195.384	3.53823
195.306	3.53733
195.23	3.53643
194.501	3.52614
194.501	3.52692
194.501	3.52768
194.501	3.52837
194.024	3.52069
193.981	3.51922
193.929	3.51775
193.873	3.51627
193.399	3.50823
193.356	3.50737
193.304	3.50644
193.248	3.50547
192.928	3.49667
192.853	3.49536
192.778	3.49397
192.703	3.49256
192.31	3.48363
192.267	3.48203
192.216	3.48042
192.161	3.47881
191.844	3.47139
191.77	3.47034
191.696	3.46929
191.621	3.46824
191.233	3.45879
191.158	3.45771
191.08	3.45663
190.993	3.45554
190.772	3.44835
190.675	3.44624
190.57	3.44406
190.46	3.44183
190.003	3.43244
189.912	3.43014
189.816	3.42783
189.712	3.42551
189.404	3.41864
189.277	3.4166
189.15	3.41452
189.024	3.41235
188.502	3.4
188.461	3.39836
188.412	3.39663
188.359	3.39486
187.912	3.38347
187.841	3.38126
187.769	3.379
187.698	3.37664
187.325	3.36799
187.202	3.36513
187.078	3.36226
186.954	3.35936
186.584	3.34878
186.544	3.34659
186.496	3.34433
186.444	3.34198
185.866	3.32847
185.814	3.32618
185.762	3.32387
185.709	3.32156
185.275	3.31086
185.235	3.30884
185.188	3.30672
185.136	3.30454
184.429	3.28499
184.412	3.28338
184.39	3.28176
184.361	3.28014
183.847	3.26741
183.779	3.26573
183.711	3.26404
183.643	3.26235
183.286	3.25943
183.231	3.25199
183.16	3.24798
183.015	3.24405
182.307	3.22785
182.218	3.22574
182.122	3.22356
182.022	3.22125
181.605	3.20553
181.521	3.20442
181.434	3.20331
181.339	3.2022
177.694	3.14397
177.61	3.14397
177.518	3.14397
177.423	3.14397
176.381	3.13885
176.297	3.13885
176.207	3.13885
176.114	3.13885
175.272	3.14013
175.128	3.14142
174.977	3.14269
174.823	3.14397
173.994	3.15465
173.887	3.15641
173.78	3.15803
173.673	3.15958
170.327	3.22018
170.25	3.22283
170.166	3.2254
170.079	3.22785
169.424	3.24405
169.365	3.2465
169.304	3.24882
169.236	3.25107
168.645	3.26549
168.645	3.26686
168.645	3.26811
168.645	3.26932
167.93	3.28865
167.93	3.29001
167.93	3.29131
167.93	3.29251
167.221	3.31086
167.221	3.31215
167.221	3.31339
167.221	3.31453
166.518	3.33013
166.486	3.33255
166.447	3.33486
166.406	3.33712
165.946	3.35037
165.872	3.35312
165.792	3.35587
165.71	3.35859
165.364	3.3697
165.364	3.3744
165.291	3.37102
165.291	3.3742
165.211	3.37234
165.211	3.37397
165.129	3.37365
165.129	3.37365
165.129	3.37664
165.06	3.379
164.988	3.38126
164.909	3.38347
164.457	3.39557
164.457	3.39659
164.457	3.39752
164.457	3.39841
163.832	3.41371
163.777	3.41588
163.719	3.41796
163.655	3.41999
163.103	3.43244
163.103	3.43337
163.103	3.43423
163.103	3.43505
