Uv/Vis Spectrum: Piperazine
Formula: C4H10N2
CAS: 110-85-0
Melting point: 106
Boiling point: 146
Instrument: Beckman DU
Origin: INSTITUTE OF ENERGY PROBLEMS OF CHEMICAL PHYSICS, RAS
Wavelength (nm)	Logarithm epsilon
166.04	3.595
166.97	3.591
167.91	3.586
168.86	3.581
169.7	3.575
170.67	3.571
171.65	3.567
172.64	3.563
173.65	3.56
174.66	3.557
175.82	3.558
176.99	3.56
177.92	3.566
178.72	3.573
179.52	3.579
180.2	3.586
181.02	3.592
181.85	3.598
182.54	3.604
183.38	3.611
184.09	3.617
184.94	3.622
185.81	3.627
186.53	3.633
187.41	3.638
188.15	3.644
189.04	3.65
189.95	3.655
190.7	3.66
191.47	3.666
192.39	3.671
193.49	3.676
194.75	3.679
196.19	3.679
197.49	3.677
198.97	3.675
200.13	3.671
201.32	3.667
202.34	3.663
203.2	3.657
204.07	3.651
204.77	3.645
205.3	3.638
205.83	3.631
206.36	3.623
206.72	3.615
207.08	3.607
207.62	3.599
207.98	3.591
208.52	3.582
208.89	3.574
209.44	3.565
209.8	3.556
210.36	3.547
210.73	3.537
211.29	3.528
211.66	3.518
212.04	3.508
212.61	3.497
212.99	3.487
213.56	3.476
214.13	3.465
214.52	3.454
215.1	3.442
215.48	3.43
216.07	3.418
216.66	3.405
217.05	3.392
217.45	3.379
