Uv/Vis Spectrum: 3-Penten-2-one, 4-amino-
Formula: C5H9NO
CAS: 1118-66-7
Melting point: 38-39
Instrument: Beckman DU
Origin: INSTITUTE OF ENERGY PROBLEMS OF CHEMICAL PHYSICS, RAS
Wavelength (nm)	Logarithm epsilon
203.02	3.134
205.28	3.12
207.42	3.111
210.03	3.101
212.43	3.098
214.43	3.096
216.84	3.096
218.84	3.106
221.11	3.12
223.37	3.134
225.66	3.151
227.89	3.173
230.27	3.208
232.25	3.24
234.42	3.272
236.43	3.31
238.44	3.353
240.45	3.385
242.21	3.421
243.72	3.461
245.48	3.498
246.98	3.532
248.49	3.568
249.75	3.602
251.26	3.629
252.76	3.658
254.02	3.686
255.7	3.709
257.1	3.73
259.05	3.75
260.8	3.769
262.56	3.787
264.32	3.805
266.33	3.816
268.59	3.822
270.85	3.825
273.12	3.822
274.87	3.808
276.88	3.793
278.64	3.775
280.4	3.756
281.66	3.729
283.17	3.704
284.42	3.674
285.68	3.646
286.93	3.616
288.19	3.583
289.45	3.548
290.95	3.51
292.46	3.474
293.97	3.435
295.48	3.392
296.98	3.345
298.99	3.301
301.01	3.252
303.27	3.22
305.53	3.185
307.79	3.16
310.05	3.134
312.31	3.12
314.38	3.108
316.83	3.091
