Uv/Vis Spectrum: 1-Octene
Formula: C8H16
CAS: 111-66-0
Melting point: - 101.7
Boiling point: 121.2
Instrument: n.i.g.
Origin: INSTITUTE OF ENERGY PROBLEMS OF CHEMICAL PHYSICS, RAS
Wavelength (nm)	Logarithm epsilon
171.12	4.024
171.23	4.027
171.34	4.029
171.44	4.032
171.55	4.035
172.08	4.048
172.61	4.064
173.14	4.08
173.67	4.095
174.2	4.106
174.73	4.115
175.27	4.121
175.8	4.124
176.33	4.125
176.86	4.125
177.39	4.124
177.92	4.121
178.45	4.116
178.98	4.112
179.51	4.104
180.05	4.095
180.58	4.085
181.11	4.073
181.64	4.058
182.15	4.045
182.69	4.029
183.23	4.01
183.76	3.99
184.3	3.966
184.83	3.943
185.36	3.916
185.89	3.888
186.42	3.859
186.95	3.833
187.48	3.804
188.01	3.771
188.54	3.735
189.07	3.693
189.61	3.663
190.14	3.617
190.67	3.572
191.2	3.528
191.73	3.478
192.26	3.437
192.79	3.398
193.32	3.343
193.85	3.302
195.24	3.177
195.98	3.115
196.72	3.043
197.57	2.971
198.42	2.886
199.29	2.796
200.18	2.713
201.02	2.633
202	2.548
203.11	2.444
204.05	2.374
