Uv/Vis Spectrum: Acetamide, N-butyl-
Formula: C6H13NO
CAS: 1119-49-9
Boiling point: 229
Instrument: n.i.g.
Origin: INSTITUTE OF ENERGY PROBLEMS OF CHEMICAL PHYSICS, RAS
Wavelength (nm)	Logarithm epsilon
180.458	4.11104
180.547	4.11282
180.635	4.1146
180.735	4.11693
180.824	4.11932
181.102	4.12565
181.19	4.12682
181.288	4.12799
181.655	4.13649
181.742	4.13757
181.842	4.13931
181.929	4.13984
182.018	4.14204
182.117	4.1437
182.206	4.14595
182.295	4.14759
182.669	4.15353
182.757	4.15462
182.846	4.15675
182.934	4.15784
183.033	4.15944
183.483	4.16477
183.583	4.16685
183.671	4.16791
183.759	4.16947
183.858	4.17047
183.946	4.17202
184.406	4.1772
184.495	4.17873
184.583	4.1797
184.682	4.18123
185.317	4.18731
185.404	4.18826
185.59	4.18975
185.678	4.19124
185.864	4.19272
185.952	4.19372
186.225	4.19619
186.312	4.19665
187.043	4.20148
187.131	4.20246
187.228	4.20292
187.316	4.20344
187.586	4.20389
187.674	4.20487
187.772	4.20532
187.946	4.20584
188.13	4.20629
189.113	4.20671
189.48	4.20623
189.75	4.20622
190.642	4.20278
190.728	4.20278
190.91	4.20132
191.092	4.20038
191.529	4.19597
191.624	4.19449
191.709	4.19348
191.795	4.19301
191.89	4.19152
191.975	4.19002
192.326	4.18599
192.411	4.18496
192.507	4.18399
192.591	4.18241
192.676	4.18144
193.122	4.17529
193.206	4.17374
193.302	4.17268
193.386	4.17112
193.83	4.16374
193.916	4.16272
194	4.16113
194.181	4.15895
194.267	4.15894
194.529	4.15195
194.624	4.15084
194.709	4.1492
194.792	4.14702
194.888	4.1459
195.236	4.13869
195.32	4.13639
195.405	4.13524
195.499	4.13299
195.584	4.13129
195.844	4.1232
195.929	4.12209
196.024	4.1197
196.108	4.11794
196.193	4.11681
196.37	4.11082
196.453	4.1078
196.548	4.10599
196.632	4.10359
196.717	4.10234
196.895	4.09682
196.978	4.09437
197.072	4.09123
197.419	4.08235
197.504	4.08043
197.591	4.07072
197.598	4.07788
197.677	4.07008
197.683	4.07594
197.762	4.06874
197.857	4.06747
197.941	4.06477
198.02	4.05737
198.102	4.0533
198.196	4.04918
198.279	4.04645
198.362	4.04294
198.458	4.04084
198.54	4.0366
198.624	4.03378
198.718	4.03095
198.801	4.02731
198.886	4.02513
198.98	4.02215
199.063	4.01853
199.147	4.0155
199.24	4.01101
199.323	4.00729
199.407	4.00419
199.501	4.00115
199.585	3.99809
199.667	3.99332
199.762	3.99021
199.845	3.98621
199.929	3.98305
200.022	3.97821
200.106	3.97498
200.188	3.97005
200.282	3.96666
200.365	3.96255
200.448	3.95737
200.542	3.95399
200.625	3.94964
200.706	3.94273
200.789	3.93827
200.882	3.9329
200.965	3.92834
201.049	3.92384
201.142	3.91918
201.224	3.91256
201.308	3.9088
201.401	3.90306
201.484	3.89817
201.567	3.89334
201.661	3.8893
201.742	3.88025
201.824	3.87411
201.917	3.86688
201.999	3.86054
202.082	3.85515
202.177	3.8519
202.26	3.8464
202.345	3.84309
202.439	3.83761
202.521	3.83069
202.605	3.82615
202.698	3.82031
202.78	3.81212
202.864	3.80853
202.958	3.80245
203.043	3.79878
203.126	3.7939
203.22	3.7876
203.304	3.78259
203.386	3.77489
203.481	3.76957
203.564	3.76307
203.648	3.7576
203.732	3.75353
203.827	3.74942
203.91	3.74261
203.993	3.73552
204.088	3.72987
204.173	3.72692
204.257	3.72255
204.352	3.71654
204.435	3.70919
204.519	3.70464
204.614	3.69838
204.697	3.69222
204.781	3.68596
204.876	3.68116
204.961	3.67787
205.045	3.6714
205.14	3.66464
205.225	3.66141
205.308	3.65449
205.403	3.64766
205.487	3.64052
205.572	3.63711
205.666	3.62979
205.75	3.62432
205.836	3.62078
205.93	3.61317
206.014	3.60749
206.1	3.60381
206.195	3.59986
206.28	3.594
206.364	3.58615
206.459	3.58204
206.543	3.57371
206.629	3.57172
206.713	3.56547
206.808	3.55707
206.893	3.55268
206.977	3.54614
207.157	3.53492
207.243	3.53057
207.338	3.52368
207.423	3.51894
207.507	3.51187
207.602	3.50468
207.687	3.49971
207.771	3.48993
207.868	3.48751
207.953	3.48235
208.037	3.47465
208.133	3.46933
208.218	3.46395
208.304	3.46138
208.399	3.4533
208.569	3.44238
208.665	3.43664
208.75	3.43084
208.835	3.4253
209.016	3.41328
209.102	3.41039
209.198	3.40422
209.283	3.39833
209.464	3.38894
209.549	3.38245
209.634	3.37587
209.72	3.37272
209.816	3.36598
209.987	3.35587
210.083	3.34886
210.169	3.34883
210.255	3.34548
210.351	3.3383
210.522	3.32751
210.618	3.32399
210.971	3.30506
211.056	3.29765
211.238	3.28578
211.323	3.27753
211.42	3.2775
211.591	3.26907
211.687	3.261
211.858	3.24808
211.954	3.23907
212.04	3.23475
212.125	3.22985
212.222	3.22543
212.489	3.20678
212.575	3.20155
212.928	3.17627
213.015	3.17624
213.111	3.17124
213.379	3.15005
213.464	3.14408
213.551	3.14404
213.733	3.13321
213.819	3.127
213.915	3.11577
214.001	3.11572
214.184	3.10921
214.356	3.09747
214.452	3.09072
214.624	3.07845
214.721	3.0784
214.892	3.06499
215.075	3.05847
215.161	3.05842
215.525	3.01579
216.506	2.99227
216.774	2.97578
216.957	2.96777
217.13	2.96765
217.398	2.94181
218.829	2.86324
219.013	2.86308
219.368	2.84066
219.821	2.82942
220.983	2.73868
221.435	2.71025
221.791	2.69326
222.147	2.67753
222.417	2.67716
223.409	2.62411
223.592	2.60588
223.947	2.58416
225.198	2.51691
225.922	2.49232
226.104	2.46744
226.276	2.43771
