Uv/Vis Spectrum: Propane, 1,1'-thiobis-
Formula: C6H14S
CAS: 111-47-7
Boiling point: 143
Instrument: Perkin-Elmer 450
Origin: INSTITUTE OF ENERGY PROBLEMS OF CHEMICAL PHYSICS, RAS
Wavelength (nm)	Logarithm epsilon
194.51	3.129
194.56	3.129
194.62	3.129
194.67	3.13
194.72	3.13
194.77	3.13
194.82	3.131
194.87	3.131
194.93	3.131
194.98	3.132
195.03	3.132
195.34	3.134
195.76	3.14
196.17	3.147
196.59	3.152
197	3.156
197.42	3.158
197.83	3.163
198.25	3.164
198.66	3.167
199.07	3.168
199.49	3.168
199.9	3.167
200.32	3.164
200.73	3.162
201.15	3.157
201.56	3.152
201.98	3.147
202.39	3.141
202.81	3.135
203.22	3.127
203.64	3.118
204.05	3.107
204.47	3.096
204.88	3.083
205.3	3.068
205.71	3.056
206.13	3.039
206.54	3.024
206.96	3.007
207.37	2.992
207.79	2.975
208.2	2.959
208.62	2.943
209.03	2.927
209.45	2.916
209.86	2.903
210.28	2.89
210.69	2.878
211.11	2.868
211.52	2.854
211.94	2.84
212.35	2.827
212.77	2.811
213.18	2.798
213.59	2.782
214.01	2.766
214.42	2.752
214.84	2.736
215.25	2.718
215.67	2.701
216.08	2.681
216.5	2.661
216.91	2.639
217.33	2.616
217.74	2.592
218.16	2.562
218.57	2.535
218.99	2.505
219.4	2.475
219.82	2.446
220.23	2.416
220.65	2.389
221.06	2.364
221.48	2.338
221.89	2.316
222.31	2.292
222.72	2.27
223.14	2.248
223.55	2.23
223.97	2.211
224.38	2.194
224.8	2.177
225.21	2.163
225.63	2.149
226.04	2.137
226.46	2.125
226.87	2.115
227.29	2.104
227.7	2.092
228.11	2.081
228.53	2.069
228.94	2.058
229.36	2.05
229.77	2.04
230.19	2.029
230.6	2.022
231.02	2.011
231.43	2.003
231.85	1.994
232.26	1.986
232.68	1.979
233.09	1.969
233.51	1.962
233.92	1.955
234.34	1.946
234.75	1.939
235.17	1.932
235.58	1.926
236	1.919
236.41	1.914
236.83	1.906
237.24	1.903
237.66	1.896
238.07	1.889
238.49	1.886
