Uv/Vis Spectrum: 2-Naphthalenol, 5,6,7,8-tetrahydro-
Formula: C10H12O
CAS: 1125-78-6
Melting point: 57
Instrument: unknown
Origin: INSTITUTE OF ENERGY PROBLEMS OF CHEMICAL PHYSICS, RAS
Wavelength (nm)	Logarithm epsilon
226.64	3.681
226.9	3.644
227.48	3.556
228.05	3.454
229.06	3.265
230.06	3.126
231.07	3.004
232.08	2.874
233.08	2.782
234.09	2.693
235.09	2.613
236.1	2.534
237.11	2.471
238.11	2.408
239.12	2.357
240.13	2.298
241.13	2.261
242.14	2.214
243.14	2.181
244.15	2.147
245.16	2.122
246.16	2.113
247.17	2.113
248.18	2.118
249.18	2.122
250.19	2.143
251.19	2.164
252.2	2.193
253.21	2.218
254.21	2.256
255.22	2.294
256.23	2.332
257.23	2.378
258.24	2.424
259.25	2.471
260.25	2.525
261.26	2.576
262.26	2.63
263.27	2.681
264.28	2.727
265.28	2.786
266.29	2.832
267.3	2.891
268.3	2.941
269.31	3
270.31	3.05
271.32	3.097
272.33	3.139
273.33	3.16
274.34	3.181
275.35	3.202
276.24	3.233
276.78	3.267
277.14	3.297
277.54	3.313
277.86	3.315
278.03	3.319
278.2	3.319
278.36	3.319
278.53	3.324
278.7	3.324
278.87	3.324
279.04	3.328
279.2	3.328
279.37	3.328
279.54	3.328
279.71	3.324
279.87	3.324
280.04	3.319
280.21	3.319
280.38	3.315
280.55	3.315
280.71	3.315
280.88	3.319
281.05	3.324
281.22	3.324
281.38	3.328
281.55	3.328
281.72	3.328
281.89	3.328
282.05	3.328
282.22	3.328
282.39	3.328
282.56	3.328
282.73	3.328
282.89	3.328
283.06	3.324
283.23	3.319
283.38	3.316
283.56	3.311
283.73	3.303
283.9	3.298
284.07	3.294
284.23	3.29
284.4	3.282
284.57	3.273
284.74	3.265
284.91	3.261
285.07	3.252
285.24	3.248
285.41	3.239
285.58	3.235
285.74	3.231
285.91	3.227
286.08	3.223
286.25	3.223
286.42	3.223
286.58	3.223
286.75	3.223
286.92	3.223
287.09	3.227
287.25	3.231
287.42	3.244
287.59	3.265
287.76	3.286
287.92	3.307
288.09	3.319
288.26	3.328
288.43	3.336
288.6	3.34
288.76	3.34
288.93	3.336
289.1	3.328
289.27	3.311
289.43	3.282
289.6	3.218
289.77	3.155
289.94	3.113
290.1	3.05
290.27	3.021
290.44	2.983
290.61	2.937
290.78	2.895
290.94	2.866
291.11	2.828
291.3	2.795
291.45	2.761
291.61	2.735
291.78	2.702
291.93	2.672
292.12	2.639
292.27	2.605
292.45	2.571
292.62	2.539
292.79	2.508
292.9	2.482
293.12	2.441
293.29	2.416
293.46	2.395
293.63	2.374
293.79	2.349
293.96	2.332
294.13	2.311
294.3	2.29
294.47	2.273
294.63	2.252
294.8	2.231
294.94	2.216
295.14	2.193
295.3	2.181
