Uv/Vis Spectrum: 2-Cyclohexen-1-one, 2-methyl-
Formula: C7H10O
CAS: 1121-18-2
Boiling point: 178.5
Instrument: n.i.g.
Origin: INSTITUTE OF ENERGY PROBLEMS OF CHEMICAL PHYSICS, RAS
Wavelength (nm)	Logarithm epsilon
213.27	3.789
213.5	3.793
213.72	3.801
213.95	3.806
214.17	3.81
214.4	3.814
214.62	3.818
214.85	3.822
215.07	3.826
215.3	3.83
215.52	3.835
215.97	3.839
216.87	3.863
217.77	3.876
218.67	3.897
219.57	3.913
220.47	3.93
221.37	3.942
222.27	3.954
223.17	3.963
224.07	3.975
224.97	3.983
225.87	3.988
226.77	3.988
227.67	3.988
228.57	3.983
229.47	3.975
230.37	3.967
231.27	3.959
232.17	3.95
233.07	3.921
233.97	3.897
234.87	3.868
235.77	3.826
236.67	3.793
237.57	3.756
238.47	3.71
239.37	3.69
240.27	3.686
241.17	3.64
242.07	3.595
242.97	3.533
243.87	3.483
244.77	3.429
245.67	3.367
246.57	3.276
247.47	3.214
248.37	3.135
249.27	3.049
250.17	2.925
251.07	2.829
251.97	2.718
252.87	2.618
253.77	2.519
254.67	2.383
255.57	2.275
256.47	2.139
257.37	2.027
258.27	1.94
259.17	1.791
260.07	1.675
260.97	1.522
261.87	1.411
262.77	1.295
263.67	1.229
264.57	1.171
265.47	1.129
266.37	1.08
267.27	1.071
268.17	1.059
269.07	1.059
269.97	1.067
270.87	1.08
271.77	1.096
272.67	1.117
273.57	1.146
274.47	1.158
275.37	1.179
276.27	1.195
277.17	1.216
278.07	1.237
278.97	1.253
279.87	1.274
280.76	1.278
281.66	1.278
282.56	1.295
283.46	1.311
284.36	1.328
285.26	1.344
286.16	1.361
287.06	1.369
287.96	1.386
288.86	1.402
289.76	1.415
290.66	1.431
291.56	1.444
292.46	1.456
293.36	1.477
294.26	1.489
295.16	1.502
296.06	1.514
296.96	1.526
297.86	1.539
298.76	1.551
299.66	1.559
300.56	1.572
301.46	1.588
302.36	1.597
303.26	1.613
304.16	1.626
305.06	1.638
305.96	1.646
306.86	1.659
307.76	1.671
308.66	1.684
309.56	1.692
310.46	1.7
311.36	1.713
312.26	1.717
313.16	1.721
314.06	1.725
314.96	1.733
315.86	1.725
316.76	1.729
317.66	1.721
318.56	1.713
319.46	1.704
320.36	1.696
321.26	1.684
322.16	1.675
323.06	1.667
323.96	1.655
324.86	1.638
325.76	1.63
326.66	1.613
327.56	1.605
328.46	1.593
329.36	1.584
330.26	1.568
331.16	1.555
332.06	1.543
332.96	1.526
333.86	1.518
334.76	1.497
335.66	1.485
336.56	1.468
337.46	1.456
338.36	1.44
339.26	1.423
340.16	1.402
341.06	1.386
341.96	1.357
342.86	1.34
343.76	1.32
344.66	1.299
345.56	1.278
346.46	1.253
347.36	1.233
348.26	1.208
349.16	1.183
350.06	1.15
350.96	1.125
351.86	1.096
352.76	1.063
353.66	1.034
354.56	0.997
355.46	0.96
356.36	0.914
357.26	0.881
358.16	0.827
359.06	0.786
359.96	0.745
360.85	0.703
361.75	0.658
362.65	0.62
363.55	0.575
364.45	0.513
365.35	0.463
366.25	0.414
367.15	0.372
368.05	0.327
368.95	0.277
369.85	0.223
370.75	0.199
371.65	0.149
