Uv/Vis Spectrum: Butylthiobenzene
Formula: C10H14S
CAS: 1126-80-3
Boiling point: 112/ 15 mm
Instrument: SF-4
Origin: INSTITUTE OF ENERGY PROBLEMS OF CHEMICAL PHYSICS, RAS
Wavelength (nm)	Logarithm epsilon
221.92	3.597
222.77	3.57
223.61	3.543
224.62	3.519
225.47	3.496
226.31	3.469
227.32	3.445
228.33	3.425
229.34	3.404
230.69	3.387
232.21	3.377
233.73	3.374
235.25	3.381
236.6	3.394
237.61	3.415
238.62	3.435
239.63	3.455
240.64	3.475
241.66	3.499
242.67	3.523
243.51	3.546
244.35	3.574
245.37	3.597
246.21	3.624
247.05	3.648
247.73	3.675
248.57	3.702
249.41	3.729
250.26	3.753
250.93	3.78
251.78	3.804
252.79	3.827
253.8	3.851
254.98	3.868
256.33	3.882
257.68	3.892
259.2	3.882
260.21	3.858
261.05	3.834
261.89	3.81
262.57	3.783
263.41	3.756
263.92	3.729
264.59	3.702
265.44	3.675
265.94	3.648
266.45	3.621
266.95	3.594
267.63	3.567
268.3	3.54
268.81	3.513
269.48	3.486
269.99	3.459
270.66	3.431
271.51	3.404
272.01	3.377
272.69	3.35
273.36	3.323
274.04	3.296
274.88	3.272
275.55	3.245
276.06	3.218
276.9	3.191
277.41	3.164
278.42	3.14
279.1	3.113
279.94	3.086
280.61	3.059
281.46	3.035
282.3	3.008
283.31	2.988
283.99	2.961
285	2.937
285.84	2.91
286.69	2.883
287.53	2.856
288.2	2.829
289.05	2.802
289.55	2.775
290.23	2.748
290.9	2.721
291.41	2.694
292.08	2.667
292.76	2.639
293.26	2.609
293.94	2.582
294.27	2.551
295.29	2.494
295.62	2.463
295.96	2.433
296.47	2.406
296.64	2.376
297.14	2.345
297.48	2.315
297.82	2.284
298.15	2.254
298.49	2.223
299	2.193
299.33	2.162
299.5	2.132
299.84	2.101
300.18	2.071
304.06	1.519
304.73	1.35
305.41	1.194
306.08	1.076
306.75	0.954
307.43	0.846
308.1	0.741
308.78	0.663
309.45	0.575
310.13	0.514
