Uv/Vis Spectrum: 2-Undecanone
Formula: C11H22O
CAS: 112-12-9
Melting point: 15
Boiling point: 231.5
Instrument: HP 8451A Spectrophotometer
Origin: INSTITUTE OF ENERGY PROBLEMS OF CHEMICAL PHYSICS, RAS
Wavelength (nm)	Logarithm epsilon
224.303	4.27832
224.679	4.27183
225.019	4.26587
225.327	4.26036
225.607	4.25523
225.865	4.25038
226.104	4.24575
226.331	4.24123
226.549	4.23672
226.763	4.23212
226.978	4.22733
227.199	4.22224
227.431	4.21673
227.678	4.21067
227.944	4.20394
228.236	4.1964
228.557	4.18789
229.849	4.16038
230.45	4.15483
231.107	4.15055
231.817	4.14749
232.577	4.14557
233.386	4.14471
234.24	4.14483
235.137	4.14581
236.075	4.14757
237.051	4.14999
238.062	4.15297
239.106	4.1564
240.181	4.16018
241.284	4.1642
242.412	4.16837
243.562	4.17259
244.734	4.17677
245.923	4.18081
245.923	4.18081
246.833	4.18626
247.716	4.19172
248.573	4.19718
249.408	4.20264
250.224	4.20808
251.023	4.2135
251.808	4.21889
252.583	4.22424
253.35	4.22953
254.111	4.23477
254.871	4.23995
255.631	4.24506
256.396	4.25008
257.166	4.25503
257.947	4.25989
258.739	4.26465
259.547	4.26931
260.372	4.27386
261.219	4.27831
262.09	4.28264
262.987	4.28685
263.914	4.29094
264.874	4.2949
265.869	4.29872
266.902	4.30241
266.902	4.30241
267.716	4.30718
268.519	4.31147
269.31	4.31529
270.089	4.31867
270.858	4.32163
271.614	4.3242
272.359	4.32638
273.093	4.3282
273.816	4.32968
274.527	4.33082
275.226	4.33165
275.915	4.33217
276.592	4.3324
277.258	4.33236
277.912	4.33204
278.556	4.33147
279.188	4.33065
279.809	4.32959
280.418	4.32831
281.017	4.32681
281.604	4.3251
282.18	4.32319
282.745	4.3211
283.3	4.31882
283.842	4.31638
284.374	4.31377
284.895	4.31101
285.405	4.30811
285.904	4.30508
286.391	4.30192
286.868	4.29864
287.334	4.29527
287.789	4.2918
288.233	4.28824
288.666	4.28462
289.088	4.28094
289.5	4.2772
289.9	4.27343
290.29	4.26964
290.669	4.26583
291.037	4.26203
291.394	4.25825
291.74	4.25449
292.076	4.25078
292.401	4.24714
292.716	4.24357
293.019	4.2401
293.312	4.23673
293.595	4.2335
293.867	4.23041
293.867	4.23041
294.232	4.22468
294.598	4.21887
294.964	4.21298
295.329	4.207
295.695	4.20095
296.061	4.19481
296.426	4.18858
296.792	4.18227
297.158	4.17585
297.523	4.16935
297.889	4.16274
298.255	4.15603
298.62	4.14922
298.986	4.1423
299.351	4.13526
299.717	4.12811
300.083	4.12084
300.448	4.11345
300.814	4.10593
301.18	4.09827
301.545	4.09048
301.911	4.08255
302.277	4.07446
302.642	4.06623
303.008	4.05784
303.373	4.04928
303.739	4.04054
304.105	4.03163
304.471	4.02254
304.836	4.01325
305.202	4.00375
305.567	3.99404
305.933	3.98411
306.299	3.97395
306.664	3.96354
307.03	3.95289
307.396	3.94196
307.761	3.93074
308.127	3.91924
308.493	3.90741
308.858	3.89526
309.224	3.88276
309.59	3.86989
309.955	3.85662
310.321	3.84294
310.687	3.82881
311.052	3.8142
311.418	3.79909
311.784	3.78343
312.149	3.76719
312.515	3.75032
312.88	3.73276
313.246	3.71446
313.612	3.69536
313.977	3.67538
314.343	3.65444
314.709	3.63243
315.074	3.60925
315.44	3.58476
315.44	3.58476
315.971	3.56012
316.488	3.53415
316.999	3.50677
317.514	3.47788
318.041	3.44734
318.591	3.41504
319.17	3.38079
319.79	3.34444
320.458	3.30575
321.184	3.26449
321.977	3.22034
322.845	3.17297
323.798	3.12195
324.845	3.06673
325.995	3.00667
327.256	2.94092
328.639	2.8684
330.151	2.78764
