Uv/Vis Spectrum: 5-Aminoisoquinoline
Formula: C9H8N2
CAS: 1125-60-6
Melting point: 70
Boiling point: 157(19)
Instrument: n.i.g.
Origin: INSTITUTE OF ENERGY PROBLEMS OF CHEMICAL PHYSICS, RAS
Wavelength (nm)	Logarithm epsilon
210.209	4.54347
210.222	4.5381
211.341	4.50113
211.615	4.48351
211.737	4.47482
211.998	4.47288
212.109	4.47206
212.37	4.4598
212.486	4.45367
212.746	4.45174
212.858	4.45091
213.132	4.4333
213.254	4.4246
213.727	4.42108
214.015	4.39808
214.272	4.38744
215.167	4.34781
215.305	4.34169
216.299	4.30548
216.56	4.29322
218.838	4.25822
219.162	4.25119
222.667	4.24008
223.087	4.23853
223.702	4.23767
224.739	4.24421
225.239	4.24737
226.289	4.24847
226.796	4.24887
228.422	4.2358
232.428	4.19925
232.913	4.19094
237.032	4.14948
237.041	4.1459
239.858	4.1207
240.073	4.11715
242.358	4.08932
243.178	4.0797
246.544	4.06073
247.241	4.06161
247.603	4.06217
247.925	4.06658
248.085	4.06889
248.647	4.07059
251.326	4.08779
251.566	4.09545
251.798	4.09862
252.136	4.10028
253.665	4.1227
253.853	4.1315
255.29	4.15084
255.742	4.1561
255.968	4.15887
256.525	4.16254
256.818	4.16437
256.912	4.16695
262.223	4.13981
262.501	4.1309
263.342	4.10285
263.62	4.09394
264.84	4.06056
264.853	4.0552
265.959	4.0236
265.967	4.02002
266.368	3.99191
266.628	3.98998
266.74	3.98915
266.753	3.98378
267.514	3.95751
267.531	3.95042
268.274	3.91794
268.548	3.91081
269.068	3.87811
269.206	3.87199
269.868	3.83598
270.011	3.82789
270.675	3.79079
270.697	3.78208
271.482	3.74584
271.499	3.73875
271.916	3.70366
272.137	3.69889
272.711	3.66383
272.737	3.65316
273.165	3.61346
273.178	3.6081
273.58	3.57921
273.602	3.57027
274.056	3.53397
274.194	3.52784
274.849	3.4944
274.871	3.48545
274.946	3.45473
275.172	3.44761
275.719	3.40978
275.745	3.39903
276.188	3.36734
276.205	3.36018
276.278	3.33023
276.295	3.32307
276.688	3.29829
276.705	3.2912
277.155	3.25611
277.173	3.24895
277.591	3.21367
277.599	3.21009
277.7	3.16863
277.874	3.18309
278.11	3.13668
278.127	3.1296
278.61	3.0812
278.83	3.07643
279.377	3.03881
279.399	3.02986
279.846	2.99638
279.871	2.9857
280.28	2.95419
280.5	2.92946
280.54	2.91557
280.804	2.9121
280.918	2.91051
281.056	2.90414
281.881	2.86943
282.027	2.85972
282.694	2.82167
282.836	2.81376
282.889	2.80992
283.234	2.8046
284.158	2.77963
284.735	2.77295
284.881	2.76898
285.354	2.76554
288.866	2.75497
289.206	2.75579
292.074	2.78743
292.268	2.79361
292.384	2.7967
292.84	2.80035
294.398	2.82873
295.075	2.8484
296.304	2.89148
297.133	2.91244
298.239	2.9422
298.443	2.94826
300.015	2.99008
300.333	2.99985
301.472	3.03279
301.913	3.04258
303.101	3.07271
303.328	3.07538
303.456	3.07686
303.64	3.08739
304.883	3.11803
305.258	3.1287
306.708	3.15951
307.107	3.17366
308.461	3.20354
309.053	3.21495
310.448	3.24633
310.807	3.25441
312.091	3.28088
312.181	3.28525
312.241	3.28756
312.47	3.28939
313.899	3.3157
314.545	3.32714
315.86	3.35593
316.499	3.3681
318.509	3.39983
318.599	3.40421
318.658	3.40651
318.989	3.41092
320.665	3.44137
320.755	3.44574
320.815	3.44805
321.47	3.45493
323.323	3.48169
324.129	3.4923
326.167	3.51385
327.108	3.52417
330.919	3.55294
331.813	3.55468
336.078	3.56162
337.671	3.56185
341.607	3.55449
342.026	3.55295
345.449	3.53123
345.916	3.53035
346.149	3.53005
346.634	3.52665
349.994	3.50526
351.597	3.50549
356.201	3.50616
357.13	3.50629
361.704	3.50952
363.098	3.50972
367.24	3.51313
368.834	3.51336
373.447	3.51403
374.809	3.51423
379.296	3.51206
380.658	3.51226
385.522	3.50502
386.15	3.50236
391.083	3.48458
392.15	3.47859
396.338	3.45359
397.047	3.44832
400.193	3.42496
400.759	3.41888
404.1	3.3884
404.416	3.3841
407.987	3.34646
408.404	3.34097
411.164	3.3098
411.491	3.30467
414.381	3.27058
414.515	3.26607
414.563	3.26395
415.002	3.25931
415.276	3.25739
415.408	3.25383
417.239	3.22849
417.712	3.22498
417.949	3.22322
417.957	3.21971
417.961	3.2181
418.435	3.21458
420.8	3.18395
421.046	3.17784
422.942	3.14969
423.426	3.14183
425.462	3.11037
425.678	3.10636
426.185	3.09972
426.193	3.09621
427.988	3.06824
428.658	3.05464
430.481	3.0261
431.074	3.01287
433.358	2.97633
433.635	2.96742
435.571	2.92621
435.788	2.92304
435.923	2.91833
436.183	2.91639
436.295	2.91556
436.303	2.91198
438.456	2.87338
438.594	2.86725
438.644	2.86419
439.225	2.85596
440.642	2.82069
441.076	2.81323
443.188	2.77062
443.534	2.75869
445.036	2.72071
445.419	2.714
447.216	2.67059
447.841	2.65558
449.437	2.61766
449.93	2.60185
451.252	2.56774
451.747	2.55527
453.472	2.5148
453.729	2.50416
454.943	2.46996
455.447	2.45962
455.684	2.45163
455.945	2.44969
