Uv/Vis Spectrum: 2-Pyridinecarboxaldehyde
Formula: C6H5NO
CAS: 1121-60-4
Instrument: Zeiss PMQ II
Origin: INSTITUTE OF ENERGY PROBLEMS OF CHEMICAL PHYSICS, RAS
Wavelength (nm)	Logarithm epsilon
192.42	4.197
192.51	4.194
192.6	4.19
192.78	4.181
193.06	4.17
193.31	4.161
193.71	4.15
194.03	4.141
194.36	4.133
194.69	4.127
194.96	4.123
195.25	4.12
195.64	4.118
196.01	4.116
196.34	4.116
196.68	4.115
197.01	4.114
197.36	4.111
197.69	4.108
198.03	4.106
198.37	4.104
198.75	4.1
199.04	4.097
199.39	4.093
199.74	4.089
200.09	4.084
200.42	4.079
200.78	4.074
201.13	4.065
201.48	4.054
201.83	4.044
202.19	4.033
202.54	4.018
202.92	4.001
203.25	3.98
203.62	3.954
203.97	3.931
204.36	3.9
204.71	3.877
205.07	3.853
205.39	3.834
205.74	3.81
206.16	3.777
206.53	3.751
206.89	3.721
207.27	3.689
207.64	3.661
208.01	3.634
208.39	3.613
208.76	3.585
209.14	3.544
209.52	3.485
209.9	3.431
210.28	3.363
210.67	3.286
211.05	3.218
211.44	3.156
211.83	3.094
212.22	3.015
212.61	2.972
213	2.951
213.39	2.934
213.79	2.932
214.18	2.93
214.58	2.934
214.98	2.942
215.38	2.955
215.78	2.972
216.19	2.987
216.61	3.005
217.05	3.025
217.73	3.049
218.41	3.076
219.22	3.105
219.89	3.13
220.31	3.147
220.73	3.166
221.16	3.188
221.58	3.207
222.05	3.227
222.43	3.245
222.86	3.26
223.29	3.28
223.73	3.295
224.16	3.312
224.59	3.328
225.03	3.344
225.47	3.363
225.91	3.38
226.36	3.397
226.8	3.418
227.25	3.44
227.7	3.459
228.14	3.476
228.56	3.491
229.05	3.51
229.5	3.525
229.96	3.54
230.4	3.556
230.88	3.57
231.31	3.583
231.78	3.597
232.27	3.61
232.74	3.621
233.21	3.632
233.68	3.642
234.16	3.653
234.63	3.664
235.11	3.674
235.59	3.683
236.07	3.692
236.56	3.7
237.04	3.707
237.53	3.713
238.02	3.721
238.47	3.727
239	3.734
239.5	3.743
240.01	3.751
240.5	3.758
241	3.766
241.5	3.773
242.01	3.775
242.52	3.779
243.03	3.783
243.5	3.787
244.05	3.792
244.55	3.798
245.09	3.805
245.61	3.809
246.13	3.815
246.64	3.819
247.19	3.824
247.72	3.828
248.24	3.832
248.79	3.835
249.31	3.839
249.86	3.843
250.4	3.847
250.95	3.852
251.49	3.854
252.04	3.856
252.6	3.857
253.15	3.856
253.71	3.854
254.28	3.853
254.82	3.85
255.38	3.847
255.95	3.843
256.52	3.839
257.09	3.837
257.66	3.832
258.24	3.828
258.81	3.822
259.4	3.815
259.98	3.807
260.57	3.798
261.16	3.788
261.75	3.777
262.34	3.768
262.96	3.759
263.54	3.745
264.14	3.732
264.75	3.713
265.36	3.694
265.97	3.672
266.58	3.647
267.2	3.621
267.82	3.591
268.44	3.564
269.07	3.536
269.7	3.499
270.33	3.459
270.96	3.408
271.6	3.346
272.24	3.28
272.88	3.233
273.53	3.184
274.18	3.117
274.83	3.049
275.48	2.962
276.14	2.868
276.73	2.796
277.16	2.752
277.89	2.678
278.61	2.612
279.48	2.515
280.16	2.424
280.84	2.338
281.53	2.261
282.22	2.2
282.91	2.146
283.6	2.095
284.3	2.05
285	2.014
285.58	1.987
286.41	1.954
287.09	1.934
287.84	1.92
288.56	1.909
289.28	1.899
290.01	1.89
290.74	1.879
291.47	1.869
292.21	1.858
292.95	1.847
293.7	1.837
294.45	1.824
295.2	1.809
295.95	1.798
296.71	1.783
297.48	1.766
298.25	1.745
299.02	1.717
299.79	1.689
300.57	1.655
301.36	1.617
302.15	1.568
302.94	1.529
303.74	1.478
