Uv/Vis Spectrum: Pyridine, 4-methoxy-1-oxide-
Formula: C6H7NO2
CAS: 1122-96-9
Melting point: 81.5-82.5
Instrument: Varian 2000
Origin: INSTITUTE OF ENERGY PROBLEMS OF CHEMICAL PHYSICS, RAS
Wavelength (nm)	Logarithm epsilon
222.226	3.016
222.726	3.003
223.226	2.99
223.726	2.978
224.226	2.967
224.726	2.955
225.226	2.943
225.726	2.932
226.226	2.92
226.726	2.908
227.226	2.895
227.726	2.883
228.226	2.87
228.726	2.856
229.226	2.843
229.726	2.829
230.226	2.816
230.726	2.802
231.226	2.788
231.726	2.774
232.226	2.76
232.726	2.747
233.226	2.734
233.726	2.722
234.226	2.709
234.726	2.698
235.226	2.687
235.726	2.677
236.226	2.668
236.726	2.659
237.226	2.652
237.726	2.645
238.226	2.64
238.726	2.635
239.226	2.632
239.726	2.63
240.226	2.628
240.726	2.628
241.226	2.63
241.726	2.632
242.226	2.635
242.726	2.639
243.226	2.645
243.726	2.651
244.226	2.659
244.726	2.667
245.226	2.676
245.726	2.687
246.226	2.698
246.726	2.709
247.226	2.722
247.726	2.735
248.226	2.749
248.726	2.764
249.226	2.779
249.726	2.795
250.226	2.812
250.726	2.829
251.226	2.848
251.726	2.867
252.226	2.887
252.726	2.909
253.226	2.932
253.726	2.956
254.226	2.983
254.726	3.011
254.904	3.017
255.404	3.061
255.904	3.099
256.404	3.133
256.904	3.163
257.404	3.191
257.904	3.218
258.404	3.243
258.904	3.268
259.404	3.293
259.904	3.318
260.404	3.343
260.904	3.369
261.404	3.396
261.904	3.424
262.404	3.453
262.904	3.483
263.404	3.513
263.904	3.545
264.404	3.576
264.904	3.608
265.404	3.64
265.904	3.672
266.404	3.703
266.904	3.734
267.404	3.763
267.904	3.792
268.404	3.819
268.904	3.845
269.404	3.869
269.904	3.891
270.404	3.912
270.904	3.93
271.404	3.946
271.904	3.961
272.404	3.974
272.904	3.986
273.404	3.996
273.904	4.007
274.3	4.014
274.8	4.024
275.3	4.037
275.8	4.052
276.3	4.068
276.8	4.084
277.3	4.1
277.8	4.116
278.3	4.13
278.8	4.144
279.3	4.155
279.8	4.165
280.3	4.172
280.8	4.177
281.3	4.18
281.8	4.181
282.3	4.179
282.8	4.175
283.3	4.169
283.8	4.161
284.3	4.151
284.8	4.139
285.3	4.126
285.8	4.111
285.826	4.111
286.326	4.093
286.826	4.075
287.326	4.057
287.826	4.039
288.326	4.021
288.826	4.003
289.326	3.983
289.826	3.962
290.326	3.94
290.826	3.917
291.326	3.892
291.826	3.865
292.326	3.838
292.826	3.81
293.326	3.781
293.826	3.752
294.326	3.724
294.826	3.697
295.326	3.673
295.861	3.644
296.361	3.619
296.861	3.595
297.361	3.572
297.861	3.549
298.361	3.527
298.861	3.507
299.361	3.487
299.861	3.468
300.361	3.45
300.861	3.433
301.361	3.417
301.861	3.402
302.361	3.388
302.861	3.374
303.361	3.362
303.861	3.351
304.361	3.34
304.861	3.33
305.361	3.321
305.861	3.313
306.361	3.305
306.861	3.298
307.361	3.292
307.861	3.286
308.361	3.281
308.861	3.276
309.361	3.272
309.861	3.268
310.361	3.264
310.861	3.261
311.361	3.258
311.861	3.255
312.361	3.253
312.861	3.25
313.361	3.248
313.861	3.246
314.361	3.244
314.861	3.242
315.361	3.24
315.861	3.238
316.361	3.236
316.861	3.234
317.361	3.232
317.861	3.229
318.361	3.227
318.861	3.224
319.361	3.221
319.861	3.218
320.361	3.215
320.861	3.212
321.361	3.208
321.861	3.204
322.361	3.2
322.861	3.195
323.361	3.191
323.861	3.186
324.361	3.181
324.861	3.175
325.361	3.17
325.861	3.164
326.361	3.158
326.861	3.151
327.361	3.145
327.861	3.138
328.361	3.131
328.861	3.123
329.361	3.116
329.861	3.108
330.361	3.1
330.861	3.092
331.361	3.084
331.861	3.075
332.361	3.066
332.861	3.057
333.361	3.048
333.861	3.038
334.361	3.029
334.861	3.019
335.329	3.01
335.829	2.999
336.329	2.988
336.829	2.977
337.329	2.966
337.829	2.955
338.329	2.944
338.829	2.932
339.329	2.919
339.829	2.906
340.329	2.892
340.829	2.878
341.329	2.863
341.829	2.847
342.329	2.831
342.829	2.815
343.329	2.798
343.729	2.786
344.229	2.768
344.729	2.75
345.229	2.73
345.729	2.708
346.229	2.685
346.729	2.66
347.229	2.634
347.729	2.607
348.229	2.578
348.729	2.548
349.229	2.517
349.729	2.485
350.229	2.453
350.729	2.42
351.229	2.387
351.729	2.354
352.229	2.321
352.729	2.287
353.229	2.253
353.729	2.219
354.229	2.184
354.729	2.148
355.229	2.111
355.729	2.072
356.229	2.03
356.729	1.985
357.229	1.936
357.729	1.881
