Uv/Vis Spectrum: Benzenamine, N-sulfinyl-
Formula: C6H5NOS
CAS: 1122-83-4
Boiling point: 83.5/ 11 mm
Instrument: Beckman DU
Origin: INSTITUTE OF ENERGY PROBLEMS OF CHEMICAL PHYSICS, RAS
Wavelength (nm)	Logarithm epsilon
220.09	3.437
220.2	3.439
220.3	3.441
220.41	3.443
220.51	3.443
220.61	3.445
220.72	3.447
220.82	3.449
221.14	3.466
221.66	3.494
222.19	3.52
222.72	3.541
223.25	3.562
223.78	3.584
224.32	3.603
224.86	3.622
225.4	3.639
225.95	3.654
226.49	3.667
227.04	3.678
227.6	3.692
228.15	3.703
228.71	3.712
229.27	3.72
229.84	3.729
230.4	3.737
230.97	3.742
231.54	3.744
232.12	3.744
232.7	3.748
233.28	3.752
233.86	3.752
234.45	3.746
235.04	3.718
235.63	3.665
236.23	3.605
236.82	3.55
237.43	3.492
238.03	3.449
238.64	3.398
239.25	3.353
239.86	3.317
240.48	3.287
241.1	3.255
241.72	3.225
242.35	3.206
242.98	3.191
243.61	3.172
244.25	3.159
244.89	3.149
245.53	3.142
246.18	3.14
246.83	3.14
247.48	3.142
248.14	3.146
248.8	3.153
249.47	3.159
250.13	3.17
250.81	3.181
251.48	3.191
252.16	3.202
252.84	3.213
253.53	3.223
254.22	3.234
254.91	3.247
255.61	3.257
256.31	3.268
257.01	3.283
257.72	3.296
258.43	3.306
259.15	3.319
259.87	3.33
260.59	3.343
261.32	3.349
262.06	3.36
262.79	3.368
263.53	3.377
264.28	3.385
265.03	3.396
265.78	3.402
266.54	3.413
267.3	3.426
268.07	3.437
268.84	3.449
269.62	3.462
270.4	3.473
271.18	3.49
271.97	3.503
272.76	3.518
273.56	3.533
274.36	3.545
275.17	3.565
275.98	3.584
276.8	3.603
277.62	3.62
278.45	3.639
279.28	3.658
280.12	3.678
280.96	3.697
281.81	3.712
282.66	3.729
283.52	3.748
284.38	3.763
285.25	3.78
286.12	3.795
287	3.81
287.89	3.823
288.77	3.835
289.67	3.85
290.57	3.863
291.48	3.874
292.39	3.884
293.31	3.893
294.23	3.902
295.16	3.908
296.09	3.916
297.03	3.927
297.98	3.936
298.93	3.944
299.89	3.953
300.86	3.959
301.83	3.968
302.81	3.976
303.79	3.985
304.78	3.991
305.78	4
306.78	4.004
307.79	4.012
308.81	4.019
309.83	4.023
310.86	4.029
311.9	4.032
312.95	4.034
314	4.036
315.06	4.038
316.12	4.036
317.19	4.034
318.27	4.034
319.36	4.029
320.46	4.025
321.56	4.019
322.67	4.01
323.79	4
324.91	3.987
326.05	3.972
327.19	3.961
328.34	3.948
329.49	3.938
330.66	3.931
331.83	3.916
333.02	3.908
334.21	3.897
335.41	3.876
336.61	3.846
337.83	3.814
339.06	3.782
340.29	3.752
341.53	3.72
342.79	3.688
344.05	3.656
345.32	3.618
346.6	3.579
347.89	3.537
349.19	3.503
350.5	3.481
351.82	3.456
353.15	3.432
354.49	3.402
355.84	3.373
357.2	3.332
358.57	3.294
359.95	3.247
361.34	3.206
362.74	3.155
364.16	3.108
365.58	3.076
367.02	3.055
368.46	3.027
369.92	2.999
371.39	2.961
372.87	2.925
374.37	2.88
375.87	2.829
377.39	2.769
378.92	2.703
380.32	2.641
381.61	2.583
383.14	2.524
385.01	2.451
386.76	2.381
388.37	2.317
389.99	2.266
391.62	2.216
393.27	2.174
394.93	2.135
