Uv/Vis Spectrum: Vinyldimethylphenylsilane
Formula: C10H14Si
CAS: 1125-26-4
Instrument: Spektromom 201
Origin: INSTITUTE OF ENERGY PROBLEMS OF CHEMICAL PHYSICS, RAS
Wavelength (nm)	Logarithm epsilon
210.39	3.824
210.56	3.828
210.73	3.831
210.9	3.834
211.07	3.834
211.24	3.838
211.41	3.841
211.58	3.841
211.75	3.844
211.92	3.848
212.09	3.848
212.44	3.841
213.12	3.844
213.8	3.844
214.48	3.844
215.16	3.848
215.84	3.851
216.52	3.855
217.21	3.855
217.89	3.858
218.57	3.868
219.25	3.875
219.93	3.882
220.61	3.895
221.29	3.895
221.97	3.872
222.66	3.807
223.34	3.733
224.02	3.668
224.7	3.597
225.38	3.512
226.06	3.411
226.74	3.329
227.43	3.197
228.11	3.041
228.79	2.916
229.47	2.784
230.15	2.665
230.83	2.55
231.51	2.448
232.2	2.397
232.88	2.279
233.56	2.143
234.24	2.018
234.92	1.899
235.6	1.815
236.28	1.733
236.97	1.676
237.65	1.652
238.33	1.649
239.01	1.652
239.69	1.669
240.37	1.682
241.05	1.693
241.74	1.72
242.42	1.747
243.1	1.781
243.78	1.811
244.46	1.849
245.14	1.882
245.82	1.92
246.5	1.947
247.19	1.981
247.87	2.004
248.55	2.042
249.23	2.079
249.91	2.116
250.59	2.14
251.27	2.167
251.96	2.194
252.64	2.225
253.32	2.252
254	2.282
254.17	2.289
254.34	2.289
254.68	2.296
255.02	2.296
255.36	2.296
255.7	2.289
256.04	2.282
256.38	2.275
256.73	2.272
257.07	2.275
257.41	2.289
258.43	2.309
259.11	2.336
259.45	2.36
259.79	2.381
260.13	2.397
260.47	2.411
260.81	2.428
261.15	2.431
261.5	2.42
261.84	2.38
262.18	2.347
262.52	2.333
262.86	2.326
263.2	2.323
263.54	2.323
263.88	2.323
264.22	2.323
264.56	2.33
264.9	2.34
265.24	2.343
265.58	2.35
265.92	2.36
266.26	2.364
266.61	2.377
266.95	2.377
267.29	2.37
267.63	2.347
267.97	2.326
268.31	2.306
268.65	2.282
268.99	2.255
269.33	2.242
269.67	2.228
270.01	2.221
270.35	2.211
270.69	2.204
271.03	2.204
271.38	2.201
271.72	2.187
272.06	2.153
272.4	2.089
272.74	2.045
273.08	2.028
273.42	2.018
273.76	1.974
274.1	1.855
274.44	1.771
274.78	1.645
275.12	1.571
275.46	1.449
275.8	1.364
276.15	1.279
276.49	1.164
276.83	1.072
277.17	0.971
277.51	0.893
