Uv/Vis Spectrum: 4-Nitropyridine
Formula: C5H4N2O2
CAS: 1122-61-8
Melting point: 49-51
Instrument: n.i.g.
Origin: INSTITUTE OF ENERGY PROBLEMS OF CHEMICAL PHYSICS, RAS
Wavelength (nm)	Logarithm epsilon
241.29	3.715
242.04	3.693
242.79	3.679
243.54	3.654
244.29	3.637
244.93	3.609
245.47	3.589
246.33	3.559
246.97	3.542
247.61	3.514
248.15	3.492
248.79	3.464
249.33	3.444
249.87	3.425
250.51	3.405
250.94	3.383
251.58	3.352
252.12	3.332
252.87	3.307
253.51	3.288
254.05	3.268
254.8	3.254
255.55	3.237
256.41	3.218
257.27	3.207
258.45	3.193
259.41	3.184
260.27	3.176
261.23	3.173
262.2	3.17
263.16	3.17
264.13	3.179
265.09	3.184
266.06	3.196
266.92	3.204
267.99	3.218
268.74	3.232
269.92	3.249
270.78	3.26
271.96	3.277
272.82	3.285
273.78	3.293
274.64	3.307
275.92	3.316
276.78	3.327
278.39	3.332
279.36	3.338
280.75	3.338
281.72	3.344
282.68	3.346
283.65	3.344
284.61	3.338
285.58	3.335
286.54	3.33
287.51	3.324
288.36	3.316
289.22	3.304
290.19	3.299
291.15	3.291
292.01	3.279
292.98	3.271
293.83	3.26
294.91	3.24
295.87	3.232
296.73	3.207
297.69	3.198
298.34	3.182
299.2	3.168
299.95	3.154
300.8	3.131
301.66	3.117
302.52	3.098
303.27	3.084
304.02	3.061
304.77	3.045
305.74	3.017
306.49	3.003
307.24	2.975
308.1	2.961
309.06	2.933
309.71	2.913
310.46	2.888
311.21	2.874
311.96	2.849
312.6	2.83
312.92	2.807
313.78	2.796
314.32	2.774
314.85	2.749
315.5	2.732
316.14	2.704
316.78	2.684
317.32	2.659
317.86	2.64
318.5	2.623
