Uv/Vis Spectrum: Decanal
Formula: C10H20O
CAS: 112-31-2
Melting point: -5
Boiling point: 208.5
Instrument: Uvispec spectrophotometer
Origin: INSTITUTE OF ENERGY PROBLEMS OF CHEMICAL PHYSICS, RAS
Wavelength (nm)	Logarithm epsilon
213.377	-0.859178
213.45	-0.796152
213.52	-0.734004
213.587	-0.672845
213.651	-0.61261
213.713	-0.553308
213.773	-0.49485
213.83	-0.437231
213.884	-0.380594
213.936	-0.324772
213.986	-0.269945
214.034	-0.215882
214.08	-0.162727
214.124	-0.110418
214.167	-0.058936
214.207	-0.008331
214.246	0.041432
214.284	0.090399
214.32	0.138492
214.355	0.185769
214.388	0.232259
214.421	0.277907
214.452	0.322777
214.482	0.366834
214.512	0.410102
214.54	0.452599
214.568	0.494308
214.596	0.535243
214.623	0.575407
214.649	0.614813
214.676	0.653473
214.702	0.691373
214.728	0.728532
214.753	0.764953
214.779	0.800648
214.805	0.835614
214.832	0.869865
214.859	0.903399
214.886	0.936232
214.913	0.968357
214.942	0.999791
214.971	1.03053
215.001	1.0606
215.031	1.08999
215.063	1.1187
215.096	1.14675
215.13	1.17414
215.165	1.20088
215.202	1.22697
215.24	1.25243
215.28	1.27724
215.321	1.30143
215.364	1.325
215.409	1.34795
215.456	1.37029
215.505	1.39203
215.556	1.41316
215.609	1.4337
215.665	1.45366
215.723	1.47304
215.783	1.49185
215.846	1.51008
215.912	1.52775
215.98	1.54487
216.051	1.56143
216.126	1.57746
216.203	1.59294
216.283	1.60789
216.367	1.62232
216.454	1.63622
216.544	1.64961
216.638	1.6625
216.736	1.67488
216.837	1.68676
216.942	1.69816
217.051	1.70907
217.164	1.7195
217.281	1.72946
217.402	1.73896
217.528	1.74799
217.657	1.75657
217.792	1.76471
217.93	1.7724
218.074	1.77965
218.222	1.78648
218.375	1.79288
218.532	1.79886
218.695	1.80444
218.863	1.8096
219.036	1.81437
219.215	1.81874
219.399	1.82273
219.588	1.82633
219.783	1.82956
219.983	1.83242
220.19	1.83491
220.401	1.83705
220.619	1.83883
220.619	1.83883
221.035	1.83625
221.438	1.83194
221.828	1.82598
222.207	1.81842
222.575	1.80933
222.933	1.79878
223.281	1.78681
223.621	1.7735
223.953	1.75891
224.278	1.74309
224.596	1.72612
224.909	1.70806
225.216	1.68895
225.52	1.66888
225.82	1.64791
226.117	1.62608
226.412	1.60348
226.706	1.58015
226.999	1.55616
227.293	1.53157
227.587	1.50645
227.883	1.48086
228.181	1.45486
228.483	1.42851
228.788	1.40188
229.098	1.37503
229.413	1.34801
229.734	1.3209
230.062	1.29375
230.397	1.26663
230.74	1.2396
231.093	1.21271
231.455	1.18605
231.828	1.15966
232.211	1.13361
232.607	1.10796
233.015	1.08277
233.437	1.05811
233.873	1.03404
234.323	1.01062
234.789	0.987907
235.271	0.965973
235.77	0.944877
236.287	0.924677
236.823	0.905445
237.377	0.887235
237.952	0.870111
238.547	0.854142
239.164	0.839377
239.803	0.825887
240.464	0.813741
241.15	0.802986
241.859	0.793693
242.594	0.785927
243.354	0.779748
244.142	0.77521
244.956	0.772388
245.798	0.771338
246.669	0.772124
247.569	0.774802
248.5	0.779445
249.461	0.786112
250.454	0.794864
250.454	0.794864
251.549	0.81272
252.621	0.830832
253.671	0.849167
254.701	0.86768
255.711	0.886338
256.704	0.90511
257.681	0.923959
258.643	0.942851
259.591	0.961744
260.527	0.980608
261.452	0.999413
262.367	1.01811
263.274	1.03668
264.174	1.05508
265.068	1.07327
265.958	1.09122
266.845	1.10889
267.731	1.12625
268.616	1.14327
269.502	1.1599
270.391	1.17612
271.283	1.19188
272.181	1.20715
273.085	1.22191
273.996	1.2361
274.917	1.24971
275.848	1.26268
276.791	1.27498
277.747	1.28659
278.717	1.29747
279.704	1.30757
280.707	1.31687
281.729	1.32533
282.77	1.33291
283.833	1.33958
284.918	1.3453
286.026	1.35005
287.161	1.35377
288.321	1.35645
289.509	1.35804
290.726	1.3585
291.974	1.35781
293.254	1.35592
294.566	1.35281
295.913	1.34843
297.296	1.34275
298.717	1.33574
300.175	1.32736
301.674	1.31757
303.213	1.30635
304.795	1.29365
304.795	1.29365
305.88	1.27868
306.937	1.26324
307.967	1.24734
308.972	1.231
309.951	1.2142
310.905	1.19698
311.836	1.17935
312.743	1.1613
313.628	1.14286
314.49	1.12403
315.331	1.10482
316.151	1.08524
316.951	1.0653
317.732	1.04502
318.493	1.0244
319.237	1.00346
319.963	0.982199
320.672	0.960637
321.365	0.938775
322.042	0.916633
322.704	0.894211
323.352	0.871526
323.986	0.848589
324.607	0.825407
325.215	0.801993
325.812	0.778361
326.398	0.754517
326.973	0.730459
327.538	0.706223
328.094	0.681793
328.642	0.657199
329.182	0.632447
329.714	0.607541
330.24	0.582495
330.76	0.557327
331.274	0.532028
331.784	0.506627
332.29	0.481113
332.792	0.45553
333.292	0.429865
333.789	0.404132
334.285	0.378325
334.78	0.352491
335.276	0.326623
335.771	0.300704
336.267	0.274781
336.766	0.248856
337.267	0.22295
337.77	0.197032
338.278	0.17117
338.79	0.145321
339.307	0.11952
339.829	0.093772
340.358	0.068112
340.893	0.042497
341.436	0.016992
341.988	-0.008464
342.548	-0.033764
343.118	-0.058936
343.697	-0.08402
344.288	-0.108909
344.89	-0.133713
345.504	-0.158328
346.13	-0.182765
346.771	-0.206978
347.425	-0.231066
348.093	-0.254925
348.777	-0.278602
349.477	-0.302074
350.193	-0.325231
350.927	-0.348238
351.679	-0.370896
352.449	-0.393404
353.238	-0.415556
354.047	-0.437469
354.876	-0.459045
355.727	-0.480303
356.599	-0.501276
357.493	-0.522011
358.411	-0.542269
359.352	-0.562249
360.317	-0.581865
360.317	-0.581865
361.595	-0.599808
362.861	-0.617443
364.122	-0.634887
365.381	-0.65228
366.644	-0.669181
367.917	-0.686133
369.203	-0.702458
370.509	-0.718739
371.839	-0.734475
373.198	-0.750068
374.592	-0.76523
376.025	-0.779892
377.502	-0.794254
