Uv/Vis Spectrum: Naphthalene, 1-ethyl-
Formula: C12H12
CAS: 1127-76-0
Melting point: -13.9
Boiling point: 258.6
Instrument: n.i.g.
Origin: INSTITUTE OF ENERGY PROBLEMS OF CHEMICAL PHYSICS, RAS
Wavelength (nm)	Logarithm epsilon
328.292	1.13276
328.116	1.15768
328.013	1.16581
327.913	1.20286
327.751	1.33504
327.667	1.35017
327.613	1.35773
327.435	1.28539
327.432	1.26059
326.977	1.39562
326.311	1.51226
326.118	1.53975
325.735	1.59907
325.734	1.5935
325.434	1.64447
325.352	1.66768
325.299	1.67951
325.215	1.6863
324.887	1.71854
324.499	1.71708
324.305	1.71657
323.816	1.71112
323.587	1.70862
323.395	1.70426
323.312	1.70226
322.825	1.69669
322.598	1.69391
322.598	1.68846
322.597	1.68595
322.386	1.68159
321.728	1.71464
321.559	1.73656
321.194	1.79707
321.194	1.79162
320.9	1.83013
320.819	1.83692
320.766	1.84048
320.687	1.86119
319.809	1.95399
319.731	1.98277
319.68	1.99739
319.572	1.9986
319.255	2.0408
319.255	2.03523
318.699	2.08621
318.534	2.1109
317.756	2.21603
317.679	2.24193
317.628	2.25506
317.552	2.29091
317.5	2.29448
317.394	2.29569
317.083	2.35023
317.082	2.33631
316.795	2.37055
316.717	2.39126
316.667	2.40161
316.178	2.45846
315.186	2.52747
315.089	2.52042
313.831	2.49446
313.829	2.48343
313.284	2.45346
313.187	2.44641
313.153	2.44311
312.974	2.43754
312.895	2.43476
312.533	2.41565
310.617	2.38943
310.458	2.395
310.365	2.39779
310.205	2.4003
310.112	2.40178
309.76	2.41135
307.514	2.48228
307.514	2.47802
307.513	2.46994
307.168	2.48787
306.994	2.49066
306.92	2.50302
306.877	2.54641
306.874	2.52172
306.873	2.50938
306.531	2.5504
306.485	2.58545
306.484	2.57708
306.358	2.55239
306.284	2.55797
305.997	2.63084
305.827	2.65834
304.979	2.74236
304.906	2.75472
304.859	2.76107
304.705	2.76506
304.615	2.76706
304.324	2.79446
303.725	2.85388
303.724	2.84831
303.221	2.89092
303.07	2.91004
302.982	2.9196
302.813	2.92241
302.717	2.92399
302.569	2.95425
302.243	2.98572
302.172	3.00085
302.125	3.00841
302.029	3.00963
301.626	3.04148
301.223	3.07738
300.28	3.14663
300.279	3.1356
299.67	3.19841
299.67	3.19136
299.668	3.17771
299.341	3.2065
299.177	3.21077
299.107	3.22283
299.061	3.22909
298.896	3.2319
298.803	3.23348
298.733	3.24026
298.687	3.24383
298.616	3.24504
298.083	3.28685
298.082	3.2785
297.25	3.33466
296.857	3.35788
295.94	3.41074
295.778	3.41485
295.687	3.41833
295.687	3.41712
294.981	3.45855
294.629	3.47815
294.391	3.49122
294.248	3.50237
294.165	3.50795
294.074	3.50916
292.05	3.58008
291.579	3.58393
289.866	3.54312
289.315	3.52922
289.049	3.52244
288.967	3.51687
287.345	3.49781
287.28	3.51017
287.238	3.51653
287.016	3.52461
286.892	3.52888
286.309	3.53011
286.009	3.5309
285.944	3.53769
285.902	3.54126
285.767	3.54524
285.688	3.54723
285.021	3.57837
284.794	3.58867
284.73	3.59425
284.009	3.6094
283.945	3.6146
283.904	3.61737
283.476	3.62546
283.25	3.62973
283.118	3.63652
283.04	3.64009
282.894	3.65375
282.811	3.6608
282.679	3.66491
282.601	3.66718
282.538	3.67238
282.497	3.67515
282.35	3.67796
282.267	3.67954
281.995	3.67955
281.85	3.68763
281.849	3.67955
280.978	3.70825
280.915	3.71503
280.875	3.7186
280.745	3.72271
280.668	3.72498
280.523	3.72619
280.441	3.72698
279.452	3.72701
278.961	3.72703
278.878	3.72293
277.777	3.69601
277.619	3.69162
277.472	3.68567
277.114	3.67733
276.946	3.67334
276.725	3.67058
274.15	3.64238
273.796	3.64797
272.211	3.6755
271.817	3.67551
271.61	3.68109
271.609	3.67552
269.399	3.68794
269.328	3.68249
269.303	3.67998
269.062	3.67079
268.921	3.66327
268.654	3.65373
268.521	3.64895
268.291	3.63401
267.422	3.58927
267.421	3.57266
267.42	3.56458
267.162	3.55902
266.067	3.48619
265.998	3.47785
265.973	3.47385
265.721	3.46537
265.582	3.45953
265.452	3.44839
264.052	3.45123
263.864	3.45931
263.76	3.46358
263.39	3.47436
263.196	3.48114
263.196	3.47993
262.075	3.51103
261.625	3.51296
261.409	3.51304
261.283	3.50759
261.228	3.50508
260.853	3.50203
260.673	3.50073
260.601	3.4856
259.834	3.4697
259.768	3.46136
259.745	3.45736
259.621	3.45589
259.568	3.45538
259.496	3.44583
259.46	3.44105
259.212	3.43548
257.088	3.3627
256.812	3.35448
256.55	3.34839
256.429	3.34282
254.93	3.29271
254.866	3.28835
253.872	3.24736
253.809	3.24589
253.787	3.24537
253.724	3.23833
253.702	3.23502
253.516	3.22798
251.085	3.15669
251.023	3.15112
251.001	3.14833
250.729	3.14088
250.306	3.12766
250.245	3.12221
249.369	3.09903
249.256	3.09505
248.358	3.06204
247.989	3.05038
245.675	2.98372
245.674	2.97814
245.674	2.97536
245.405	2.97389
245.278	2.97338
245.215	2.97061
245.183	2.96941
244.967	2.96635
244.867	2.96504
244.694	2.96107
244.615	2.95908
244.505	2.95472
241.634	2.97752
241.476	2.98163
241.389	2.98391
241.068	2.9964
240.993	2.99826
240.415	3.00507
240.126	3.00865
239.959	3.0173
239.9	3.01901
239.689	3.02153
239.583	3.02301
239.477	3.02711
238.414	3.05412
238.414	3.05213
238.414	3.04815
238.321	3.0597
238.266	3.06249
237.693	3.07676
236.565	3.10796
236.418	3.11047
234.976	3.15541
234.683	3.16619
234.528	3.17297
234.528	3.17176
