Uv/Vis Spectrum: Methanone, (4-aminophenyl)phenyl-
Formula: C13H11NO
CAS: 1137-41-3
Melting point: 124-125
Instrument: Perkin-Elmer 137
Origin: INSTITUTE OF ENERGY PROBLEMS OF CHEMICAL PHYSICS, RAS
Wavelength (nm)	Logarithm epsilon
210.84	4.189
211.13	4.17
211.42	4.153
211.71	4.136
212	4.119
212.3	4.102
212.69	4.085
212.98	4.068
213.38	4.051
213.67	4.034
214.07	4.017
214.57	3.999
214.87	3.982
215.47	3.967
215.98	3.95
216.58	3.935
217.2	3.923
217.81	3.908
218.53	3.897
219.26	3.884
220.1	3.874
220.94	3.865
221.79	3.857
222.76	3.852
223.73	3.848
224.71	3.848
225.59	3.854
226.48	3.861
227.26	3.874
228.05	3.886
228.73	3.899
229.41	3.912
229.98	3.927
230.67	3.942
231.25	3.959
231.95	3.972
232.53	3.989
233.24	4.004
234.07	4.017
234.9	4.029
235.74	4.04
236.47	4.053
237.2	4.066
238.06	4.078
238.8	4.093
239.67	4.104
240.79	4.11
241.8	4.117
242.82	4.123
243.98	4.125
245.15	4.125
246.33	4.123
247.52	4.119
248.58	4.108
249.53	4.095
250.47	4.085
251.16	4.07
251.98	4.055
252.67	4.04
253.37	4.023
254.06	4.008
254.62	3.991
255.05	3.974
255.61	3.957
256.18	3.94
256.61	3.923
257.18	3.906
257.61	3.889
258.05	3.871
258.48	3.854
258.91	3.837
259.35	3.818
259.79	3.801
260.23	3.784
260.52	3.765
260.97	3.748
261.41	3.731
261.86	3.711
262.15	3.692
262.6	3.675
263.05	3.658
263.5	3.639
263.96	3.62
264.41	3.601
264.87	3.583
265.32	3.566
265.78	3.547
266.24	3.53
266.86	3.513
267.32	3.496
267.94	3.479
268.88	3.464
269.83	3.451
271.1	3.443
272.54	3.441
274	3.441
275.47	3.441
276.96	3.443
278.3	3.453
279.48	3.466
280.33	3.483
281.18	3.498
282.04	3.513
282.91	3.528
283.78	3.545
284.65	3.56
285.54	3.577
286.42	3.592
287.32	3.607
288.39	3.622
289.3	3.639
290.21	3.654
291.13	3.671
292.23	3.686
293.16	3.701
294.1	3.716
294.85	3.733
295.8	3.75
296.75	3.765
297.71	3.782
298.86	3.797
299.84	3.814
300.81	3.831
301.6	3.848
302.59	3.865
303.59	3.88
304.59	3.897
305.62	3.913
306.62	3.93
307.64	3.946
308.67	3.963
309.6	3.979
310.75	3.995
311.8	4.012
313.07	4.027
314.14	4.042
315.21	4.057
316.08	4.074
317.16	4.091
318.26	4.106
319.36	4.121
320.92	4.134
322.04	4.149
323.17	4.166
324.76	4.177
326.83	4.181
328.7	4.189
330.58	4.198
332.25	4.211
334.42	4.215
336.37	4.221
338.59	4.221
340.85	4.221
343.13	4.221
345.19	4.213
347	4.2
347.79	4.183
349.64	4.172
351.5	4.162
353.12	4.147
353.93	4.13
355.3	4.115
356.67	4.1
358.05	4.085
358.89	4.068
359.73	4.051
360.58	4.031
361.42	4.012
362.28	3.993
363.13	3.974
363.99	3.957
364.86	3.94
365.72	3.923
366.6	3.906
367.47	3.889
368.06	3.869
368.94	3.852
369.83	3.833
370.43	3.814
371.32	3.795
371.92	3.775
372.52	3.756
373.12	3.737
373.73	3.718
374.64	3.699
374.95	3.679
375.56	3.66
376.17	3.641
376.78	3.622
377.4	3.603
378.02	3.583
378.64	3.564
379.26	3.545
379.89	3.526
380.36	3.508
380.82	3.491
381.36	3.47
381.9	3.451
382.36	3.434
382.97	3.413
383.68	3.394
384.37	3.374
384.96	3.357
385.61	3.338
386.17	3.318
386.63	3.302
387.23	3.281
387.71	3.263
388.25	3.244
388.86	3.223
