Uv/Vis Spectrum: Guanidine
Formula: CH5N3
CAS: 113-00-8
Melting point: 50
Instrument: Beckman quartz spectrophotometer
Origin: INSTITUTE OF ENERGY PROBLEMS OF CHEMICAL PHYSICS, RAS
Wavelength (nm)	Logarithm epsilon
221.26	2.967
221.89	2.961
222.52	2.954
223.15	2.946
223.78	2.94
224.41	2.934
225.04	2.928
225.67	2.92
226.3	2.914
226.93	2.905
227.56	2.899
228.19	2.89
228.82	2.882
229.45	2.875
230.08	2.867
230.71	2.86
231.34	2.851
231.97	2.841
232.6	2.832
233.23	2.826
233.7	2.814
234.33	2.804
234.96	2.795
235.59	2.786
236.22	2.775
237.48	2.753
238.03	2.741
238.58	2.728
239.13	2.716
239.76	2.703
240.39	2.69
241.02	2.676
241.57	2.662
242.2	2.647
242.83	2.632
243.39	2.616
243.94	2.599
245.2	2.565
245.83	2.546
246.46	2.527
247.09	2.507
247.72	2.485
248.27	2.463
248.9	2.44
249.53	2.415
