Uv/Vis Spectrum: Phenol, 4-cyclohexyl-
Formula: C12H16O
CAS: 1131-60-8
Melting point: 133
Boiling point: 294
Instrument: unknown
Origin: INSTITUTE OF ENERGY PROBLEMS OF CHEMICAL PHYSICS, RAS
Wavelength (nm)	Logarithm epsilon
222.47	3.876
222.64	3.872
222.8	3.868
222.97	3.864
223.13	3.859
223.3	3.855
223.46	3.851
223.63	3.835
224.78	3.781
225.94	3.707
227.09	3.616
228.25	3.525
229.4	3.401
230.56	3.269
231.71	3.128
232.87	2.983
234.02	2.859
235.17	2.744
236.33	2.653
237.48	2.558
238.64	2.5
239.79	2.446
240.95	2.417
242.1	2.388
243.26	2.355
244.41	2.343
245.57	2.339
246.72	2.355
247.87	2.38
249.03	2.409
250.18	2.45
251.34	2.487
252.49	2.533
253.65	2.583
254.8	2.616
255.96	2.661
257.11	2.702
258.27	2.74
259.42	2.785
260.57	2.818
261.73	2.864
262.88	2.897
264.04	2.938
265.19	2.979
266.35	3.016
267.5	3.049
268.66	3.091
271.79	3.178
271.96	3.178
272.12	3.182
272.29	3.186
272.45	3.186
272.62	3.19
272.78	3.194
272.95	3.194
273.11	3.198
273.28	3.202
273.44	3.202
273.77	3.202
274.1	3.202
274.43	3.207
274.76	3.215
275.09	3.227
275.42	3.235
275.75	3.252
276.08	3.264
276.41	3.269
276.74	3.273
277.07	3.281
277.4	3.289
277.73	3.302
278.06	3.318
278.39	3.326
278.72	3.326
279.05	3.297
279.31	3.262
279.54	3.227
279.88	3.179
280.11	3.132
280.34	3.1
280.45	3.089
280.7	3.078
281.03	3.083
281.36	3.095
281.67	3.106
281.97	3.121
282.32	3.138
282.68	3.161
283.01	3.198
283.31	3.233
283.65	3.271
284	3.289
284.33	3.293
284.66	3.289
284.98	3.275
285.25	3.252
285.59	3.213
285.98	3.149
286.31	2.996
286.64	2.909
286.97	2.814
287.3	2.711
287.62	2.644
287.95	2.587
288.28	2.525
288.61	2.487
288.94	2.442
289.21	2.406
289.49	2.37
289.93	2.33
290.23	2.305
290.5	2.282
290.84	2.254
291.25	2.223
291.58	2.202
291.91	2.178
292.2	2.15
292.53	2.13
292.9	2.111
293.23	2.099
293.56	2.082
293.89	2.066
294.21	2.053
294.55	2.037
294.88	2.02
295.21	2.012
295.54	2
295.87	1.992
296.2	1.979
