Uv/Vis Spectrum: 4-Hydroxybenzophenone
Formula: C13H10O2
CAS: 1137-42-4
Melting point: 135
Instrument: n.i.g.
Origin: INSTITUTE OF ENERGY PROBLEMS OF CHEMICAL PHYSICS, RAS
Wavelength (nm)	Logarithm epsilon
386.768	0.481958
386.551	0.515132
386.275	0.548353
385.95	0.581586
385.583	0.614834
385.183	0.648087
384.757	0.681341
384.315	0.714598
383.863	0.747831
383.411	0.781044
382.966	0.814228
382.536	0.847369
382.129	0.880476
381.752	0.913528
381.413	0.946521
381.119	0.979448
380.88	1.0123
380.701	1.04508
380.701	1.04508
380.215	1.06797
379.679	1.10662
379.196	1.12951
379.196	1.12951
378.842	1.16284
378.46	1.19624
378.054	1.2297
377.627	1.26319
377.183	1.29671
376.725	1.33025
376.257	1.36378
375.783	1.3973
375.305	1.4308
374.827	1.46425
374.352	1.49764
373.884	1.53097
373.426	1.56422
372.982	1.59737
372.553	1.63041
372.144	1.66332
372.144	1.66332
371.764	1.6775
371.405	1.69994
371.026	1.71412
371.026	1.71412
370.568	1.75273
370.089	1.78394
369.477	1.82224
368.62	1.8821
368.62	1.8821
367.972	1.91389
367.079	1.96983
366.319	2.00434
366.319	2.00434
365.64	2.04605
365.062	2.08026
364.545	2.10943
364.052	2.136
363.546	2.16244
362.99	2.19119
362.348	2.2247
361.584	2.26542
360.664	2.31582
360.664	2.31582
359.91	2.34478
358.602	2.40444
357.303	2.4641
356.563	2.49307
356.563	2.49307
355.737	2.53208
354.904	2.57105
354.069	2.60995
353.235	2.64874
353.235	2.64874
351.87	2.6799
350.377	2.71106
348.797	2.74226
347.173	2.77351
345.545	2.80485
343.95	2.83629
342.426	2.86787
341.008	2.89961
339.732	2.93154
338.631	2.96368
337.74	2.99607
337.74	2.99607
337.374	3.00059
337.009	3.00502
336.645	3.00927
336.645	3.00927
335.625	3.04114
334.611	3.07302
333.603	3.1049
332.602	3.13678
331.607	3.16866
330.619	3.20054
329.639	3.23241
328.665	3.26427
327.7	3.29612
326.742	3.32796
325.793	3.35977
324.852	3.39157
323.919	3.42335
322.995	3.4551
322.081	3.48683
321.175	3.51852
320.279	3.55018
320.279	3.55018
320.143	3.5617
319.852	3.5728
319.626	3.58596
319.626	3.58596
318.771	3.61949
317.926	3.65278
317.088	3.68584
316.251	3.71869
315.41	3.75133
314.561	3.78377
313.7	3.81603
312.821	3.84811
311.921	3.88002
310.994	3.91178
310.038	3.94339
309.048	3.97487
308.021	4.00622
308.021	4.00622
304.584	4.05811
303.022	4.0809
301.95	4.09411
301.95	4.09411
300.75	4.10232
300.127	4.10848
299.542	4.11787
299.542	4.11787
295.334	4.13094
293.751	4.13688
293.357	4.14074
293.357	4.14074
291.448	4.13905
289.552	4.13455
287.676	4.12751
285.829	4.11821
284.015	4.10691
282.241	4.0939
280.514	4.07944
278.839	4.06381
277.221	4.04728
275.666	4.03012
274.178	4.01262
274.178	4.01262
273.543	3.99259
272.43	3.9721
271.298	3.95495
271.298	3.95495
270.353	3.92746
268.856	3.9016
267.164	3.87825
265.615	3.85827
265.615	3.85827
262.656	3.83491
261.147	3.82359
260.505	3.81609
260.505	3.81609
258.842	3.81366
257.238	3.81142
255.681	3.8098
254.163	3.80923
252.675	3.81014
251.207	3.81295
249.752	3.81809
248.301	3.82599
246.848	3.83709
245.385	3.8518
