Uv/Vis Spectrum: 9H-Fluorene, 2-bromo-
Formula: C13H9Br
CAS: 1133-80-8
Melting point: 113.5
Boiling point: 185/ 135 mm
Instrument: n.i.g.
Origin: INSTITUTE OF ENERGY PROBLEMS OF CHEMICAL PHYSICS, RAS
Wavelength (nm)	Logarithm epsilon
220.51	4.259
220.76	4.254
221.02	4.249
221.27	4.244
221.53	4.239
221.7	4.234
221.98	4.226
222.8	4.199
223.56	4.156
224.32	4.084
225.09	4.022
225.85	3.981
226.61	3.96
227.38	3.95
227.85	3.934
228.14	3.903
228.4	3.861
228.68	3.817
228.9	3.779
229.26	3.736
229.67	3.683
229.98	3.646
230.29	3.614
230.74	3.577
231.29	3.543
231.96	3.516
232.72	3.511
233.48	3.511
234.38	3.521
235.01	3.537
235.77	3.563
236.14	3.584
236.54	3.604
236.89	3.614
237.3	3.619
238.13	3.632
238.83	3.65
239.59	3.686
239.85	3.715
240.02	3.747
240.35	3.785
241.12	3.821
242.16	3.845
243.41	3.867
244.17	3.877
244.93	3.898
245.69	3.929
246.47	3.974
246.81	3.991
247.22	4.006
247.98	4.022
248.85	4.033
249.25	4.039
249.51	4.048
250.27	4.089
251	4.119
252	4.153
253.33	4.192
254.09	4.218
254.85	4.244
255.57	4.263
256.38	4.285
257.15	4.302
257.91	4.316
259.43	4.342
260.21	4.354
261.83	4.374
263.11	4.388
264.12	4.399
264.74	4.406
265.44	4.412
266.3	4.419
267.49	4.425
269.35	4.425
270.88	4.409
272.41	4.388
273.93	4.363
274.7	4.332
275.46	4.326
276.22	4.306
276.99	4.301
277.75	4.28
278.51	4.275
279.28	4.259
280.8	4.213
281.57	4.187
282.33	4.146
283.09	4.094
283.86	4.048
284.62	3.986
285.38	3.939
286.14	3.898
286.85	3.871
287.67	3.852
288.45	3.833
289.2	3.821
289.96	3.821
290.72	3.826
291.49	3.841
292.25	3.862
293.01	3.888
293.7	3.902
294.54	3.908
295.3	3.903
296.07	3.888
296.83	3.877
297.99	3.861
298.99	3.851
299.88	3.846
300.73	3.846
301.41	3.852
302.17	3.862
302.94	3.888
303.7	3.924
304.46	3.955
304.82	3.964
305.23	3.965
305.61	3.959
306.02	3.942
306.4	3.92
306.75	3.893
307.23	3.832
307.77	3.761
308.19	3.697
308.52	3.638
309.04	3.557
309.4	3.482
309.8	3.403
