Uv/Vis Spectrum: Mercury, chloromethyl-
Formula: CH3ClHg
CAS: 115-09-3
Instrument: Cary 14
Origin: INSTITUTE OF ENERGY PROBLEMS OF CHEMICAL PHYSICS, RAS
Wavelength (nm)	Logarithm epsilon
211.5	3.519
212.32	3.5
213.14	3.484
213.96	3.467
214.92	3.449
215.88	3.43
216.97	3.414
218.06	3.397
219.16	3.38
220.11	3.362
221.21	3.343
222.3	3.323
223.39	3.302
224.49	3.285
225.58	3.262
226.67	3.238
227.77	3.218
228.86	3.197
229.95	3.18
231.05	3.157
232.14	3.132
233.23	3.106
234.33	3.079
235.42	3.057
236.51	3.026
237.61	2.997
238.84	2.966
239.83	2.935
241.03	2.896
242.3	2.852
243.54	2.804
244.44	2.771
245.54	2.725
246.71	2.665
247.86	2.594
248.95	2.524
250.18	2.44
251.41	2.335
252.64	2.248
253.87	2.139
255.1	1.992
256.33	1.771
