Uv/Vis Spectrum: 1-Propene, 2-methyl-
Formula: C4H8
CAS: 115-11-7
Melting point: -140.4
Boiling point: -6.9
Instrument: Beckman DU
Origin: INSTITUTE OF ENERGY PROBLEMS OF CHEMICAL PHYSICS, RAS
Wavelength (nm)	Logarithm epsilon
170	3.58
171	3.62
172	3.57
173	3.6
174	3.75
175	3.84
176	3.8
177	3.87
178	3.99
179	4.06
180	4.06002
181	4.03
182	4.03
183	4.06
184	4.07
185	4.06
186	4.06
187	4.07
188	4.1
189	4.08
190	3.98
191	3.91
192	3.85
193	3.8
194	3.73
195	3.65
196	3.56
197	3.47
198	3.36
199	3.27
