Uv/Vis Spectrum: Phosphoric acid, triphenyl ester
Formula: C18H15O4P
CAS: 115-86-6
Melting point: 50
Instrument: Spektromom 201
Origin: INSTITUTE OF ENERGY PROBLEMS OF CHEMICAL PHYSICS, RAS
Wavelength (nm)	Logarithm epsilon
204.96	4.144
205.14	4.144
205.31	4.144
205.48	4.144
205.65	4.148
205.82	4.148
205.99	4.148
206.16	4.151
206.33	4.151
206.5	4.151
206.68	4.151
206.85	4.155
207.02	4.155
207.19	4.155
207.36	4.158
207.53	4.158
207.7	4.158
207.87	4.161
208.05	4.161
208.22	4.151
208.73	4.148
209.24	4.141
209.76	4.127
210.27	4.107
210.78	4.079
211.3	4.052
211.81	4.025
212.32	3.994
212.84	3.96
213.35	3.925
213.87	3.864
214.38	3.819
214.89	3.751
215.41	3.682
215.92	3.576
216.43	3.484
216.95	3.33
217.46	3.176
217.97	3.042
218.46	2.951
218.99	2.841
219.53	2.714
220.03	2.597
220.54	2.498
221.07	2.394
221.57	2.296
222.08	2.212
222.6	2.125
223.11	2.046
223.62	1.974
224.14	1.875
224.65	1.82
225.16	1.766
225.68	1.731
226.19	1.718
226.7	1.714
227.22	1.721
227.73	1.728
228.24	1.738
228.76	1.742
229.27	1.759
229.78	1.769
230.3	1.793
230.81	1.813
231.33	1.834
231.84	1.851
232.35	1.879
232.87	1.902
233.38	1.93
233.89	1.94
234.41	1.971
234.92	1.991
235.43	2.022
235.95	2.043
236.46	2.07
236.97	2.094
237.49	2.115
238	2.145
238.51	2.166
239.03	2.187
239.54	2.204
240.06	2.234
240.57	2.255
241.08	2.282
241.6	2.306
242.11	2.323
242.62	2.344
243.14	2.371
243.65	2.392
244.16	2.412
244.68	2.433
245.19	2.457
245.7	2.477
246.22	2.501
246.73	2.522
247.24	2.546
247.76	2.563
248.27	2.584
248.79	2.601
249.3	2.618
249.81	2.635
250.33	2.652
250.84	2.669
251.35	2.676
251.87	2.69
252.38	2.707
252.89	2.724
253.41	2.738
253.92	2.755
254.43	2.758
254.95	2.772
255.46	2.789
255.97	2.803
256.49	2.813
257	2.827
257.52	2.83
258.03	2.816
258.54	2.796
259.06	2.792
259.57	2.799
260.08	2.82
260.6	2.847
261.11	2.871
261.62	2.895
262.14	2.909
262.65	2.905
263.16	2.854
263.68	2.789
264.19	2.738
264.7	2.707
265.22	2.697
265.73	2.697
266.25	2.71
266.76	2.734
267.27	2.765
267.79	2.786
268.3	2.782
268.81	2.755
269.1	2.687
269.33	2.597
269.77	2.454
270.32	2.288
270.87	2.135
271.35	2.025
271.89	1.906
272.41	1.8
272.92	1.677
273.43	1.557
273.95	1.434
274.41	1.326
274.9	1.211
275.42	1.102
275.94	1.003
276.49	0.898
277.03	0.809
277.54	0.732
