Uv/Vis Spectrum: N-Phenylcarbazole
Formula: C18H13N
CAS: 1150-62-5
Melting point: 85-87
Instrument: Zeiss M4Q
Origin: INSTITUTE OF ENERGY PROBLEMS OF CHEMICAL PHYSICS, RAS
Wavelength (nm)	Logarithm epsilon
229.58	4.538
229.69	4.541
229.8	4.541
229.92	4.543
230.03	4.545
230.14	4.547
230.26	4.549
230.37	4.549
230.49	4.551
230.6	4.553
230.72	4.555
230.95	4.558
231.64	4.572
232.33	4.585
233.03	4.596
233.73	4.609
234.44	4.621
235.15	4.634
235.87	4.645
236.59	4.658
237.31	4.666
238.04	4.675
238.77	4.677
239.51	4.677
240.25	4.666
241	4.632
241.75	4.589
242.51	4.549
243.27	4.515
244.04	4.487
244.81	4.453
245.58	4.421
246.36	4.394
247.15	4.37
247.94	4.349
248.74	4.33
249.54	4.311
250.34	4.296
251.15	4.283
251.97	4.27
252.79	4.258
253.62	4.245
254.45	4.234
255.29	4.224
256.13	4.213
256.98	4.204
257.84	4.198
258.7	4.19
259.57	4.181
260.44	4.175
261.21	4.166
262.2	4.151
263.09	4.134
263.41	4.127
263.7	4.119
264.02	4.108
264.26	4.1
264.45	4.094
264.59	4.089
264.74	4.083
264.84	4.08
265.04	4.075
265.34	4.066
265.65	4.058
265.95	4.053
266.25	4.049
266.56	4.047
266.87	4.045
267.17	4.045
267.48	4.043
267.79	4.039
268.1	4.039
268.41	4.041
268.72	4.041
269.03	4.045
269.34	4.049
269.65	4.053
269.96	4.058
270.28	4.062
270.63	4.064
270.95	4.064
271.22	4.062
271.54	4.058
271.85	4.053
272.18	4.047
272.5	4.043
272.81	4.039
273.14	4.039
273.46	4.041
273.78	4.045
274.1	4.056
274.36	4.063
274.64	4.07
274.97	4.076
275.18	4.08
275.4	4.083
275.77	4.087
276.06	4.09
276.38	4.09
276.71	4.087
277.04	4.085
277.37	4.085
277.7	4.085
278.04	4.085
278.37	4.085
278.7	4.085
279.04	4.087
279.37	4.087
279.71	4.09
280.05	4.094
280.38	4.096
280.72	4.102
281.06	4.109
281.4	4.115
281.74	4.119
282.08	4.128
282.43	4.136
282.77	4.141
283.12	4.147
283.46	4.155
283.81	4.162
284.15	4.166
284.5	4.17
284.85	4.175
285.2	4.175
285.55	4.175
285.9	4.175
286.25	4.173
286.61	4.173
286.96	4.17
287.31	4.168
287.67	4.164
288.03	4.16
288.38	4.158
288.74	4.158
289.1	4.158
289.46	4.16
289.82	4.162
290.18	4.166
290.55	4.175
290.91	4.185
291.27	4.2
291.64	4.224
292.01	4.236
292.37	4.249
292.74	4.26
293.11	4.262
293.48	4.26
293.85	4.258
294.22	4.249
294.6	4.224
294.97	4.2
295.34	4.175
295.72	4.138
296.1	4.1
296.47	4.053
296.82	4.011
297.29	3.942
297.72	3.878
298.15	3.81
298.48	3.746
298.9	3.66
299.14	3.609
299.53	3.551
299.9	3.511
300.3	3.466
300.63	3.436
301.01	3.405
301.35	3.375
301.8	3.343
302.29	3.308
302.65	3.285
303.04	3.266
303.44	3.251
303.84	3.234
304.23	3.22
304.63	3.211
305.03	3.207
305.43	3.205
305.83	3.205
306.24	3.209
306.64	3.22
307.05	3.234
307.45	3.249
307.86	3.26
308.27	3.266
308.68	3.273
309.09	3.279
309.5	3.283
309.91	3.288
310.32	3.294
310.74	3.302
311.16	3.313
311.57	3.322
311.98	3.332
312.4	3.341
312.83	3.347
313.25	3.354
313.65	3.359
314.1	3.364
314.53	3.37
314.95	3.375
315.35	3.38
315.81	3.385
316.23	3.388
316.66	3.392
317.1	3.396
317.53	3.4
317.96	3.407
318.4	3.417
318.84	3.426
319.27	3.432
319.71	3.443
320.15	3.454
320.59	3.466
321.04	3.479
321.48	3.5
321.93	3.519
322.37	3.554
322.82	3.575
323.27	3.579
323.72	3.579
324.17	3.575
324.62	3.562
325.08	3.545
325.53	3.532
325.99	3.524
326.45	3.517
326.91	3.509
327.37	3.5
327.83	3.492
328.27	3.485
328.76	3.479
329.23	3.473
329.69	3.466
330.16	3.46
330.63	3.456
331.06	3.453
331.57	3.449
332.04	3.447
332.52	3.447
332.99	3.447
333.47	3.447
333.95	3.447
334.43	3.449
334.95	3.454
335.39	3.46
335.88	3.473
336.37	3.492
336.85	3.511
337.34	3.534
337.83	3.558
338.32	3.581
338.82	3.6
339.31	3.619
339.81	3.624
340.3	3.624
340.8	3.619
341.3	3.581
341.81	3.53
342.31	3.471
342.81	3.39
343.33	3.306
343.83	3.212
344.38	3.113
345.05	2.982
345.88	2.827
346.43	2.727
347.1	2.603
347.71	2.485
348.32	2.366
349.04	2.236
349.87	2.074
350.48	1.962
350.98	1.869
351.48	1.769
351.81	1.726
352.2	1.701
352.69	1.696
352.96	1.694
353.23	1.694
353.5	1.692
354.04	1.675
354.58	1.66
355.12	1.635
355.66	1.613
356.21	1.582
356.75	1.541
357.3	1.445
