Uv/Vis Spectrum: Triphenylarsine oxide192
Formula: C18H15AsO
CAS: 1153-05-5
Melting point: 192
Instrument: Zeiss PMQ II
Origin: INSTITUTE OF ENERGY PROBLEMS OF CHEMICAL PHYSICS, RAS
Wavelength (nm)	Logarithm epsilon
211.58	3.696
212.19	3.687
212.82	3.674
213.93	3.655
215.1	3.638
216.28	3.625
217.47	3.612
218.62	3.601
219.8	3.587
220.97	3.574
222.15	3.564
223.32	3.553
224.5	3.543
225.67	3.536
226.85	3.526
228.02	3.513
229.19	3.502
230.37	3.492
231.54	3.485
232.74	3.475
233.89	3.468
235.07	3.455
236.24	3.448
237.42	3.438
238.59	3.424
239.77	3.417
240.94	3.404
242.11	3.4
243.29	3.387
244.46	3.383
245.64	3.376
246.81	3.373
247.99	3.37
249.16	3.37
250.34	3.373
251.51	3.383
252.68	3.39
253.86	3.4
255.03	3.407
256.21	3.414
257.38	3.417
258.56	3.421
259.73	3.421
260.91	3.421
262.08	3.414
263.26	3.4
264.43	3.383
265.6	3.356
266.78	3.332
267.95	3.284
269.13	3.237
270.3	3.182
271.48	3.114
272.65	3.033
273.83	2.941
275	2.777
276.22	2.625
277.35	2.488
278.52	2.325
279.7	2.137
280.87	1.984
282.05	1.831
283.22	1.674
284.4	1.511
285.57	1.344
