Uv/Vis Spectrum: 1-Hydroxy-4-aminoanthraquinone
Formula: C14H9NO3
CAS: 116-85-8
Melting point: 208
Instrument: Unicam SP 700
Origin: INSTITUTE OF ENERGY PROBLEMS OF CHEMICAL PHYSICS, RAS
Wavelength (nm)	Logarithm epsilon
219.54	4.562
220.56	4.583
221.58	4.607
222.6	4.627
223.79	4.644
225.15	4.654
226.5	4.671
228.03	4.674
229.39	4.661
230.41	4.637
231.26	4.61
232.11	4.586
232.96	4.559
233.98	4.535
234.83	4.508
235.51	4.481
236.36	4.457
237.21	4.434
238.06	4.406
238.91	4.379
239.76	4.356
240.61	4.328
241.63	4.305
242.47	4.281
243.49	4.257
244.34	4.233
245.19	4.206
246.04	4.183
247.06	4.159
248.08	4.135
249.1	4.111
249.95	4.084
250.97	4.064
251.82	4.04
252.67	4.016
253.69	3.996
254.71	3.972
255.73	3.949
256.58	3.925
257.6	3.901
258.62	3.881
259.63	3.86
260.48	3.837
261.5	3.816
262.52	3.796
263.37	3.772
264.56	3.752
265.75	3.735
267.28	3.728
268.81	3.728
270.34	3.732
271.87	3.738
273.4	3.745
274.93	3.752
276.28	3.762
277.81	3.769
279.34	3.772
280.7	3.782
282.23	3.789
283.76	3.793
285.29	3.799
286.82	3.799
288.35	3.799
289.88	3.796
291.41	3.786
292.93	3.776
294.29	3.759
295.82	3.752
297.18	3.738
298.54	3.728
299.73	3.711
301.09	3.694
302.45	3.681
303.81	3.664
305	3.647
306.19	3.63
307.38	3.609
308.57	3.592
309.75	3.576
310.94	3.559
312.13	3.542
313.32	3.521
314.34	3.501
315.53	3.484
316.72	3.467
318.08	3.45
319.44	3.433
320.63	3.416
321.99	3.406
323.18	3.389
324.37	3.372
325.56	3.355
326.74	3.335
327.76	3.314
328.95	3.294
330.14	3.277
331.33	3.257
332.18	3.233
333.37	3.213
334.39	3.189
335.58	3.169
336.6	3.145
337.79	3.124
338.98	3.107
340	3.084
341.02	3.06
342.21	3.043
343.56	3.026
344.92	3.009
346.28	2.992
347.64	2.979
348.83	2.962
350.02	2.941
351.38	2.924
352.57	2.907
353.76	2.887
354.95	2.867
356.31	2.85
357.67	2.833
359.03	2.819
360.55	2.816
362.08	2.806
363.61	2.799
365.14	2.792
366.5	2.778
367.86	2.762
369.05	2.741
369.9	2.717
370.92	2.697
372.11	2.677
373.13	2.653
374.49	2.636
375.85	2.622
377.2	2.609
378.73	2.606
380.26	2.595
381.79	2.592
383.32	2.589
384.85	2.589
386.38	2.585
387.74	2.572
389.27	2.565
390.63	2.551
392.16	2.548
393.69	2.544
