Uv/Vis Spectrum: 1,8-Dihydroxyanthraquinone
Formula: C14H8O4
CAS: 117-10-2
Melting point: 191
Instrument: Beckman DU
Origin: INSTITUTE OF ENERGY PROBLEMS OF CHEMICAL PHYSICS, RAS
Wavelength (nm)	Logarithm epsilon
221.58	4.569
221.75	4.572
221.92	4.572
222.09	4.575
222.26	4.579
222.43	4.582
222.6	4.586
222.77	4.589
222.94	4.592
223.11	4.592
223.28	4.596
224.19	4.613
225	4.629
225.66	4.64
226.21	4.644
227.02	4.64
227.29	4.619
227.83	4.585
228.38	4.545
228.78	4.519
229.18	4.493
229.74	4.463
229.86	4.426
230.26	4.386
231.1	4.321
231.74	4.275
232.46	4.229
232.96	4.201
233.36	4.185
233.82	4.168
234.17	4.161
235.18	4.154
236.54	4.161
237.9	4.175
239.26	4.195
240.62	4.212
241.98	4.232
243.22	4.25
244.7	4.276
246.06	4.304
247.41	4.331
248.77	4.348
250.13	4.365
251.49	4.378
252.85	4.382
254.21	4.382
255.63	4.38
256.93	4.375
258.29	4.358
259.65	4.334
261.01	4.314
262.37	4.28
263.73	4.246
265.09	4.215
266.45	4.185
267.81	4.154
269.17	4.127
270.53	4.103
271.89	4.083
272.91	4.069
274.12	4.064
275.74	4.062
277.33	4.056
278.68	4.049
280.04	4.039
281.4	4.035
282.22	4.042
282.76	4.049
283.84	4.065
284.65	4.076
285.48	4.083
286.13	4.085
286.84	4.079
287.62	4.064
288.2	4.042
288.43	4.016
288.7	3.992
289.1	3.961
289.78	3.924
290.92	3.865
291.12	3.835
291.53	3.801
291.93	3.766
292.28	3.726
292.74	3.69
293.28	3.647
293.64	3.607
294.09	3.565
294.63	3.516
295	3.471
295.58	3.433
295.98	3.397
296.36	3.366
296.79	3.336
297.2	3.304
297.72	3.271
298.14	3.245
298.55	3.217
299.08	3.189
299.76	3.163
300.44	3.135
300.84	3.115
301.8	3.091
302.46	3.075
303.16	3.064
303.68	3.053
304.52	3.043
305.88	3.04
307.24	3.04
308.59	3.043
310.22	3.051
311.31	3.057
312.67	3.065
314.03	3.071
315.39	3.074
316.52	3.077
317.74	3.081
319.47	3.084
320.79	3.087
322.11	3.087
323.55	3.087
324.91	3.087
326.27	3.087
327.63	3.091
329.22	3.095
330.35	3.101
331.8	3.104
333.13	3.11
334.43	3.115
335.79	3.121
337.15	3.132
338.51	3.142
339.81	3.15
341.38	3.163
342.58	3.176
343.94	3.189
345.3	3.203
346.66	3.22
348.02	3.237
349.38	3.251
350.74	3.268
352.1	3.285
353.46	3.302
354.82	3.318
356.18	3.335
357.54	3.352
358.82	3.374
360.26	3.397
361.62	3.414
362.98	3.431
364.34	3.451
365.7	3.475
367.06	3.495
368.42	3.516
369.78	3.532
371.13	3.553
372.49	3.573
373.85	3.59
375.21	3.607
376.57	3.628
377.93	3.648
379.29	3.668
380.65	3.689
382.01	3.706
383.37	3.723
384.73	3.74
386.09	3.753
387.45	3.77
388.81	3.787
390.17	3.804
391.53	3.821
392.89	3.835
394.25	3.852
395.61	3.869
396.97	3.882
398.33	3.899
399.69	3.913
401.05	3.927
402.4	3.94
403.76	3.95
405.12	3.964
406.48	3.978
407.84	3.991
409.2	3.998
410.56	4.011
411.92	4.022
413.28	4.028
414.64	4.039
416	4.045
417.36	4.056
418.72	4.059
420.08	4.066
421.44	4.073
422.8	4.076
424.16	4.079
425.52	4.086
426.88	4.09
428.24	4.096
429.6	4.107
430.96	4.103
432.32	4.103
433.67	4.093
435.03	4.09
436.39	4.076
437.75	4.069
439.11	4.056
440.47	4.045
441.83	4.039
443.19	4.028
444.55	4.025
445.91	4.015
447.27	4.008
448.63	4.008
449.99	3.994
451.35	3.991
452.71	3.978
454.07	3.967
455.43	3.957
456.79	3.94
458.15	3.923
459.51	3.899
460.87	3.879
462.23	3.845
463.58	3.801
464.94	3.763
466.3	3.716
467.66	3.665
469.02	3.617
470.38	3.566
471.74	3.502
473.1	3.441
474.46	3.386
475.82	3.325
477.18	3.261
478.54	3.196
479.9	3.132
481.26	3.064
482.62	2.989
483.98	2.918
485.34	2.85
486.7	2.785
487.91	2.744
489.42	2.693
490.78	2.629
492.14	2.568
493.34	2.515
494.85	2.456
496.21	2.411
497.57	2.364
498.93	2.316
500.29	2.265
501.65	2.218
503.01	2.164
504.37	2.102
505.73	2.045
507.09	1.977
508.45	1.899
509.81	1.824
