Uv/Vis Spectrum: Trifluoperazine
Formula: C21H24F3N3S
CAS: 117-89-5
Melting point: 240
Instrument: Spektromom 201
Origin: INSTITUTE OF ENERGY PROBLEMS OF CHEMICAL PHYSICS, RAS
Wavelength (nm)	Logarithm epsilon
226.71	4.008
228.06	4.022
229.25	4.039
230.6	4.056
231.95	4.069
233.14	4.086
234.49	4.1
235.67	4.117
237.02	4.131
238.38	4.144
239.73	4.155
241.08	4.172
242.43	4.182
243.62	4.199
244.8	4.216
245.82	4.24
246.83	4.26
247.68	4.288
248.52	4.311
249.2	4.339
250.21	4.363
251.06	4.39
252.24	4.41
253.42	4.427
254.78	4.441
256.3	4.448
257.82	4.444
259.34	4.434
260.52	4.417
261.54	4.397
262.55	4.373
263.23	4.346
263.91	4.318
264.41	4.291
264.75	4.26
265.26	4.23
265.6	4.199
265.93	4.168
266.1	4.138
266.44	4.107
266.95	4.08
267.12	4.049
267.46	4.018
267.96	3.988
268.3	3.957
268.81	3.926
269.15	3.896
269.48	3.865
269.82	3.834
270.16	3.804
270.33	3.773
270.84	3.746
271.17	3.715
271.51	3.684
271.85	3.654
272.36	3.623
272.7	3.592
273.2	3.565
273.54	3.534
273.88	3.504
274.39	3.476
274.73	3.446
275.23	3.418
275.57	3.388
276.25	3.36
277.09	3.333
277.94	3.309
278.95	3.285
280.3	3.268
281.83	3.265
283.35	3.268
284.53	3.285
285.71	3.302
286.9	3.319
288.08	3.337
289.1	3.357
290.28	3.377
291.46	3.398
292.81	3.412
294	3.429
295.18	3.446
296.37	3.463
297.72	3.48
299.07	3.493
300.42	3.507
301.78	3.517
302.95	3.528
304.34	3.537
306	3.541
307.52	3.544
309.04	3.541
310.63	3.537
312.09	3.527
313.61	3.521
315.13	3.51
316.55	3.5
318.01	3.487
319.36	3.473
320.71	3.459
322.06	3.442
323.42	3.429
324.77	3.412
325.95	3.394
327.1	3.379
328.49	3.357
329.84	3.34
331.02	3.319
332.21	3.299
333.22	3.279
334.4	3.258
335.59	3.238
336.6	3.217
337.62	3.197
338.63	3.176
339.81	3.156
340.66	3.132
341.67	3.108
342.69	3.088
343.7	3.064
344.55	3.04
345.56	3.016
346.41	2.992
347.42	2.972
348.44	2.948
349.28	2.921
350.3	2.9
351.14	2.873
352.16	2.852
353	2.829
353.85	2.805
354.69	2.781
355.54	2.754
356.38	2.73
357.23	2.702
358.24	2.679
358.92	2.651
359.93	2.627
360.44	2.6
361.45	2.576
362.3	2.549
363.14	2.525
363.82	2.498
364.67	2.474
365.34	2.447
366.02	2.42
366.69	2.392
367.54	2.368
368.05	2.341
368.89	2.317
369.74	2.293
370.41	2.266
371.09	2.239
371.94	2.215
372.61	2.188
373.46	2.16
374.3	2.137
374.98	2.109
375.66	2.082
376.5	2.055
377.35	2.028
378.02	2
378.87	1.976
379.54	1.949
380.56	1.925
381.23	1.898
382.08	1.871
382.92	1.843
383.77	1.82
384.45	1.792
385.29	1.768
385.8	1.741
386.64	1.717
387.32	1.69
388.17	1.663
389.01	1.636
389.86	1.612
390.53	1.584
391.38	1.557
392.05	1.53
392.9	1.506
393.58	1.479
394.25	1.451
394.93	1.424
395.77	1.4
396.28	1.373
