Uv/Vis Spectrum: 2-Aminoanthraquinone
Formula: C14H9NO2
CAS: 117-79-3
Melting point: 304.5
Boiling point: sub
Instrument: Beckman DU
Origin: INSTITUTE OF ENERGY PROBLEMS OF CHEMICAL PHYSICS, RAS
Wavelength (nm)	Logarithm epsilon
249.24	4.338
249.64	4.338
250.04	4.338
250.44	4.334
250.84	4.334
251.24	4.329
251.65	4.329
252.05	4.329
252.45	4.325
252.85	4.325
253.25	4.321
253.65	4.321
254.05	4.321
255.66	4.277
257.27	4.256
258.87	4.228
260.48	4.199
262.09	4.179
263.69	4.159
265.3	4.135
266.9	4.13
268.51	4.126
271.72	4.106
273.33	4.106
274.94	4.106
276.54	4.11
279.75	4.106
281.36	4.09
282.97	4.082
284.57	4.07
286.18	4.07
289.39	4.061
291	4.057
292.6	4.049
294.21	4.045
297.42	3.988
299.03	3.968
300.63	3.936
302.24	3.919
303.85	3.891
305.45	3.854
307.06	3.822
308.67	3.789
310.27	3.769
311.88	3.761
313.48	3.753
316.7	3.749
318.3	3.745
319.91	3.737
321.52	3.732
323.12	3.716
324.73	3.692
326.33	3.672
327.94	3.651
329.55	3.615
331.15	3.59
332.76	3.558
334.37	3.517
335.97	3.493
337.58	3.456
339.18	3.395
340.79	3.363
342.4	3.314
344	3.217
345.61	3.119
347.22	3.087
348.82	3.062
352.03	3.042
353.64	3.038
355.25	3.034
356.85	3.034
358.46	3.034
360.06	3.042
361.67	3.05
363.28	3.062
364.88	3.079
366.49	3.095
368.1	3.111
369.7	3.119
371.31	3.144
372.91	3.144
374.52	3.156
376.13	3.172
377.73	3.201
379.34	3.205
380.95	3.217
382.55	3.229
385.76	3.261
387.37	3.265
388.98	3.278
390.58	3.286
392.19	3.298
393.8	3.302
395.4	3.314
397.01	3.322
398.61	3.326
400.22	3.33
401.83	3.339
405.04	3.343
406.65	3.343
408.25	3.347
409.86	3.347
411.46	3.351
414.68	3.343
416.28	3.343
417.89	3.343
419.49	3.339
421.1	3.339
422.71	3.33
424.31	3.318
425.92	3.31
427.53	3.302
430.74	3.286
432.34	3.278
433.95	3.261
435.56	3.261
437.16	3.241
438.77	3.221
440.38	3.205
441.98	3.201
443.59	3.172
445.19	3.152
446.8	3.14
448.41	3.107
450.01	3.083
451.62	3.066
453.23	3.038
454.83	3.01
456.44	2.993
458.04	2.953
459.65	2.928
461.26	2.912
462.86	2.868
464.47	2.839
466.08	2.798
467.68	2.77
469.29	2.754
470.89	2.725
472.5	2.705
474.11	2.636
475.71	2.632
477.32	2.595
478.92	2.555
480.53	2.518
482.14	2.49
483.74	2.429
485.35	2.364
486.96	2.36
488.56	2.319
490.17	2.275
491.77	2.238
493.38	2.181
494.99	2.157
496.59	2.1
498.2	2.08
499.81	2.043
501.41	1.998
503.02	1.958
504.62	1.909
506.23	1.881
507.84	1.82
509.44	1.804
511.05	1.763
512.66	1.726
514.26	1.682
