Uv/Vis Spectrum: Methanone, (2-hydroxyphenyl)phenyl-
Formula: C13H10O2
CAS: 117-99-7
Melting point: 38.5-39
Instrument: Cary 14
Origin: INSTITUTE OF ENERGY PROBLEMS OF CHEMICAL PHYSICS, RAS
Wavelength (nm)	Logarithm epsilon
219.73	4.26
219.84	4.258
219.94	4.255
220.05	4.251
220.15	4.249
220.26	4.247
220.36	4.243
220.47	4.24
220.58	4.236
220.68	4.234
221	4.219
221.43	4.198
221.85	4.176
222.28	4.161
222.71	4.142
223.15	4.116
223.58	4.099
224.02	4.08
224.46	4.067
224.89	4.052
225.34	4.039
225.78	4.026
226.22	4.018
226.67	4.007
227.12	3.996
227.57	3.986
228.02	3.975
228.47	3.969
228.93	3.962
229.39	3.954
229.73	3.948
230.24	3.943
230.63	3.941
231.23	3.939
231.78	3.939
232.17	3.941
232.64	3.943
233.41	3.948
233.93	3.951
234.44	3.955
235.08	3.96
235.6	3.963
236.16	3.969
236.8	3.973
238.17	3.984
238.93	3.99
239.33	3.993
239.97	3.999
240.43	4.003
241.08	4.01
241.7	4.017
242.04	4.022
242.46	4.026
242.97	4.033
243.41	4.039
244.01	4.046
244.57	4.052
245.05	4.056
245.94	4.068
246.24	4.071
246.62	4.076
247.23	4.083
247.69	4.088
248.22	4.095
248.81	4.102
249.3	4.108
249.87	4.113
250.39	4.118
250.94	4.125
251.48	4.131
252.04	4.138
252.59	4.144
253.15	4.148
253.71	4.153
254.19	4.158
254.83	4.163
255.4	4.168
256.07	4.173
256.54	4.176
256.97	4.179
257.57	4.183
258.3	4.187
258.9	4.188
259.41	4.189
260.02	4.189
260.61	4.189
261.21	4.189
261.86	4.188
262.37	4.186
262.88	4.184
263.57	4.18
264.21	4.174
264.82	4.168
265.37	4.162
266.05	4.155
266.67	4.148
267.29	4.142
267.91	4.131
268.54	4.123
269.17	4.108
269.8	4.093
270.43	4.08
271.07	4.061
271.71	4.046
272.36	4.02
273	3.996
273.65	3.964
274.31	3.937
274.96	3.909
275.62	3.879
276.12	3.852
276.43	3.837
276.83	3.816
277.62	3.776
278.68	3.722
279.65	3.671
280.33	3.631
281.02	3.588
281.75	3.539
282.4	3.491
283.1	3.449
283.8	3.397
284.5	3.361
285.21	3.327
285.92	3.284
286.63	3.252
287.35	3.222
288.07	3.194
288.79	3.168
289.52	3.147
290.25	3.13
290.99	3.113
291.73	3.104
292.47	3.096
293.22	3.087
293.97	3.083
294.72	3.078
295.48	3.078
296.25	3.082
297.01	3.087
297.78	3.096
298.55	3.104
299.29	3.114
300.11	3.128
300.9	3.145
301.71	3.161
302.48	3.179
303.28	3.205
304.08	3.228
304.89	3.252
305.7	3.277
306.52	3.301
307.34	3.32
308.16	3.342
309.06	3.361
309.89	3.383
310.69	3.4
311.55	3.416
312.34	3.432
313.29	3.452
314.06	3.47
314.92	3.487
315.79	3.502
316.66	3.521
317.53	3.541
318.41	3.556
319.3	3.571
320.19	3.586
321.08	3.598
321.95	3.614
322.88	3.628
323.8	3.641
324.71	3.654
325.5	3.667
326.43	3.68
327.39	3.693
328.43	3.703
329.37	3.712
330.29	3.718
331.27	3.725
332.18	3.731
333.19	3.735
334.04	3.739
335.02	3.744
336.01	3.747
337.1	3.75
338.1	3.753
339.09	3.753
340.1	3.75
341.11	3.746
342.12	3.744
343.15	3.742
344.18	3.735
345.21	3.733
346.25	3.725
347.3	3.716
348.35	3.705
349.41	3.693
350.48	3.68
351.55	3.669
352.63	3.652
353.71	3.639
354.81	3.618
355.91	3.596
357.01	3.564
358.13	3.534
359.25	3.504
360.36	3.468
361.51	3.432
362.65	3.397
363.8	3.365
364.9	3.329
365.75	3.303
366.77	3.274
367.95	3.236
369.4	3.19
370.85	3.128
372.05	3.076
373.25	3.015
374.62	2.952
375.7	2.877
376.91	2.8
378.17	2.706
379.42	2.603
