Uv/Vis Spectrum: p-Benzoquinone, 2,3,5,6-tetrachloro-
Formula: C6Cl4O2
CAS: 118-75-2
Melting point: 292
Instrument: Zeiss PMQ II
Origin: INSTITUTE OF ENERGY PROBLEMS OF CHEMICAL PHYSICS, RAS
Wavelength (nm)	Logarithm epsilon
202.96	4.016
203.05	4.021
203.13	4.023
203.22	4.025
203.31	4.027
203.4	4.031
203.85	4.053
204.3	4.066
204.75	4.076
205.2	4.087
205.65	4.093
206.11	4.098
206.57	4.098
207.03	4.096
207.49	4.089
207.96	4.085
208.42	4.078
208.89	4.068
209.36	4.063
209.84	4.055
210.31	4.044
210.79	4.036
211.27	4.025
211.75	4.014
212.23	4.003
212.72	3.991
213.21	3.978
213.7	3.965
214.19	3.952
214.69	3.935
215.18	3.922
215.68	3.903
216.19	3.881
216.69	3.862
217.2	3.843
217.71	3.821
218.22	3.798
218.73	3.776
219.25	3.748
219.77	3.725
220.29	3.703
220.81	3.673
221.34	3.654
221.87	3.633
222.4	3.615
222.93	3.603
223.47	3.59
224.01	3.566
224.55	3.547
225.09	3.525
225.64	3.506
226.19	3.485
226.74	3.468
227.3	3.45
227.85	3.431
228.42	3.414
228.98	3.401
229.54	3.388
230.11	3.378
230.68	3.36
231.26	3.35
231.84	3.339
232.42	3.328
233	3.32
233.59	3.313
234.17	3.309
234.77	3.307
235.36	3.305
235.96	3.305
236.56	3.303
237.16	3.309
237.77	3.315
238.38	3.32
239	3.326
239.61	3.33
240.23	3.339
240.86	3.345
241.48	3.354
242.11	3.363
242.74	3.373
243.38	3.384
244.02	3.393
244.66	3.403
245.31	3.414
245.96	3.425
246.61	3.438
247.27	3.453
247.93	3.465
248.59	3.476
249.26	3.489
249.93	3.504
250.6	3.519
251.28	3.53
251.96	3.543
252.65	3.558
253.34	3.568
254.03	3.581
254.73	3.592
255.43	3.603
256.13	3.613
256.84	3.626
257.55	3.639
258.27	3.654
258.99	3.667
259.72	3.684
260.44	3.697
261.18	3.71
261.91	3.727
262.65	3.74
263.4	3.757
264.15	3.77
264.9	3.789
265.66	3.802
266.42	3.819
267.19	3.836
267.96	3.851
268.73	3.868
269.51	3.883
270.3	3.903
271.09	3.918
271.88	3.935
272.68	3.954
273.48	3.969
274.29	3.988
275.1	4.006
275.92	4.023
276.74	4.038
277.57	4.053
278.4	4.061
279.24	4.072
280.08	4.081
280.93	4.089
281.78	4.096
282.64	4.104
283.5	4.115
284.37	4.123
285.24	4.134
286.12	4.138
287	4.143
287.89	4.145
288.79	4.143
289.69	4.136
290.6	4.126
291.51	4.106
292.43	4.085
293.35	4.061
294.28	4.031
295.22	3.999
296.16	3.967
297.1	3.926
298.06	3.883
299.02	3.834
299.98	3.785
300.96	3.735
301.93	3.678
302.92	3.637
303.91	3.581
304.91	3.523
305.91	3.472
306.92	3.418
307.94	3.363
308.97	3.305
310	3.253
311.04	3.202
312.08	3.15
313.13	3.11
314.19	3.064
315.25	3.011
316.4	2.96
317.44	2.922
318.5	2.878
319.6	2.837
320.7	2.795
321.81	2.752
322.93	2.707
324.06	2.666
325.19	2.632
326.34	2.604
327.49	2.58
328.65	2.552
329.81	2.529
330.99	2.51
332.17	2.488
333.37	2.473
334.57	2.458
335.78	2.441
336.99	2.43
338.22	2.426
339.46	2.417
340.7	2.413
341.96	2.409
343.22	2.411
344.49	2.413
345.78	2.415
347.07	2.42
348.37	2.426
349.68	2.43
351	2.437
352.34	2.439
353.68	2.441
355.03	2.447
356.39	2.447
357.77	2.45
359.15	2.45
360.54	2.45
361.95	2.45
363.36	2.45
364.79	2.45
366.23	2.447
367.68	2.443
369.14	2.439
370.62	2.437
372.1	2.428
373.6	2.422
375.11	2.417
376.63	2.409
378.16	2.398
379.71	2.39
381.27	2.379
382.84	2.37
384.42	2.357
386.02	2.347
387.63	2.334
389.26	2.317
390.89	2.297
392.55	2.282
394.21	2.263
395.89	2.242
397.59	2.216
399.3	2.19
401.02	2.16
402.76	2.134
404.52	2.104
406.29	2.074
408.07	2.051
409.87	2.021
411.69	1.987
413.52	1.948
415.37	1.912
417.24	1.875
419.12	1.837
421.02	1.802
422.94	1.764
424.87	1.727
426.83	1.689
428.8	1.648
430.79	1.607
432.79	1.562
434.82	1.524
436.86	1.481
438.93	1.432
441.01	1.386
443.12	1.335
445.24	1.292
447.39	1.254
449.55	1.219
451.74	1.187
