Uv/Vis Spectrum: Benzoic acid, 2-methyl-
Formula: C8H8O2
CAS: 118-90-1
Melting point: 103.5-104.5
Instrument: Beckman DU
Origin: INSTITUTE OF ENERGY PROBLEMS OF CHEMICAL PHYSICS, RAS
Wavelength (nm)	Logarithm epsilon
204.2	4.405
204.33	4.393
204.51	4.377
204.71	4.353
205.04	4.305
205.88	4.194
206.72	4.084
207.56	3.976
208.4	3.876
209.24	3.807
210.08	3.769
210.92	3.748
211.76	3.731
212.6	3.721
213.44	3.717
214.28	3.717
215.12	3.717
215.96	3.717
216.8	3.717
217.64	3.717
218.48	3.731
219.32	3.734
220.16	3.748
221	3.766
221.84	3.776
222.68	3.786
223.52	3.804
224.36	3.821
225.2	3.845
226.04	3.866
226.88	3.88
227.72	3.897
228.56	3.907
229.4	3.914
230.24	3.914
231.08	3.911
231.91	3.907
232.75	3.897
233.59	3.88
234.43	3.866
235.27	3.845
236.11	3.814
236.95	3.776
237.79	3.741
238.63	3.696
239.47	3.638
240.31	3.589
241.15	3.534
241.99	3.485
242.83	3.43
243.67	3.371
244.51	3.316
245.35	3.254
246.19	3.202
247.03	3.154
247.87	3.091
248.71	3.053
249.55	3.008
250.39	2.96
251.23	2.925
252.07	2.898
252.91	2.877
253.75	2.856
254.59	2.839
255.43	2.828
256.27	2.818
257.11	2.815
257.95	2.808
258.79	2.804
259.63	2.804
260.47	2.815
261.31	2.818
262.15	2.832
262.99	2.832
263.83	2.846
264.67	2.853
265.51	2.867
266.35	2.884
267.19	2.898
268.03	2.918
268.87	2.932
269.71	2.946
270.55	2.967
271.39	2.981
272.23	2.998
273.07	3.015
273.91	3.029
274.75	3.039
275.59	3.057
276.43	3.064
277.27	3.071
278.11	3.071
278.95	3.077
279.79	3.081
280.63	3.074
281.47	3.071
282.31	3.064
283.15	3.046
283.99	3.029
284.83	3.015
285.67	2.998
286.51	2.981
287.35	2.956
288.19	2.925
289.03	2.884
289.87	2.818
290.71	2.746
291.55	2.623
292.53	2.452
293.42	2.298
294.21	2.164
294.9	2.057
295.74	1.961
296.58	1.805
297.42	1.653
298.26	1.501
299.1	1.345
299.45	1.269
299.68	1.215
299.99	1.161
300.22	1.112
300.62	1.044
301.12	0.944
301.62	0.833
302.13	0.723
302.63	0.64
303.14	0.539
303.64	0.446
304.14	0.37
304.65	0.287
