Uv/Vis Spectrum: 2-Aminobenzoic acid
Formula: C7H7NO2
CAS: 118-92-3
Melting point: 146.5
Boiling point: sub
Instrument: n.i.g.
Origin: INSTITUTE OF ENERGY PROBLEMS OF CHEMICAL PHYSICS, RAS
Wavelength (nm)	Logarithm epsilon
391.365	0.797884
391.119	0.836685
390.868	0.875461
390.612	0.914211
390.35	0.952928
390.083	0.991625
389.81	1.0303
389.533	1.06894
389.25	1.10757
388.962	1.14617
388.67	1.18474
388.372	1.2233
388.07	1.26184
387.763	1.30036
387.451	1.33885
387.135	1.37733
386.814	1.4158
386.489	1.45425
386.16	1.49268
385.826	1.5311
385.488	1.5695
385.145	1.60789
384.799	1.64627
384.449	1.68464
384.094	1.72299
383.736	1.76134
383.374	1.79968
383.008	1.83801
382.639	1.87633
382.265	1.91464
381.889	1.95295
381.509	1.99125
381.125	2.02955
380.738	2.06785
380.349	2.10614
379.955	2.14443
379.559	2.18272
379.159	2.22101
378.757	2.2593
378.352	2.29759
377.943	2.33588
377.532	2.37418
377.119	2.41247
377.119	2.41247
376.791	2.41618
376.436	2.4196
376.069	2.42287
376.069	2.42287
375.702	2.46291
375.291	2.50286
374.84	2.54273
374.353	2.58253
373.835	2.62224
373.29	2.66187
372.722	2.70142
372.134	2.74089
371.532	2.78027
370.918	2.81956
370.298	2.85877
369.674	2.89789
369.051	2.93693
368.433	2.97587
367.823	3.01473
367.224	3.05349
367.224	3.05349
366.38	3.09134
365.496	3.12968
364.558	3.16829
363.552	3.20694
362.466	3.2454
361.286	3.28344
360.002	3.32083
358.599	3.35734
357.069	3.39274
355.401	3.42681
353.584	3.4593
351.611	3.48999
349.474	3.51866
347.166	3.54507
344.681	3.56899
344.681	3.56899
340.437	3.58179
337.242	3.58464
334.57	3.57537
331.935	3.5518
328.884	3.51176
328.884	3.51176
327.37	3.5016
326.281	3.48768
325.038	3.46536
322.042	3.43266
321.236	3.42006
320.433	3.40716
319.634	3.39412
319.634	3.39412
318.02	3.35755
316.521	3.351
316.52	3.35667
316.519	3.36205
316.518	3.36729
315.085	3.31295
312.579	3.27981
312.579	3.27981
312.356	3.2671
311.75	3.24729
310.858	3.21457
310.858	3.21457
310.854	3.24194
310.853	3.24566
310.853	3.24909
310.852	3.25237
310.565	3.21388
310.272	3.21305
309.98	3.21193
309.98	3.21193
309.471	3.19106
308.945	3.17018
308.412	3.14931
308.412	3.14931
308.204	3.1493
307.987	3.14929
307.752	3.14928
307.752	3.14928
306.757	3.11598
305.218	3.07969
303.458	3.0419
301.791	3.00412
300.516	2.96783
299.926	2.93455
299.926	2.93455
299.498	2.92391
299.072	2.91298
298.647	2.90191
298.147	2.88233
296.534	2.84654
295.061	2.80716
293.694	2.76524
292.402	2.72186
291.154	2.67808
289.921	2.63498
288.869	2.61016
287.844	2.57554
286.876	2.53995
285.958	2.50351
285.082	2.46632
284.244	2.42852
283.435	2.3902
282.651	2.3515
281.885	2.31251
281.131	2.27337
280.384	2.23418
279.637	2.19505
278.886	2.15611
278.886	2.15611
278.027	2.11937
277.23	2.08166
276.347	2.046
275.234	2.01545
273.749	1.99301
271.763	1.98174
271.219	1.98432
269.975	2.02204
269.128	2.0665
268.538	2.11267
268.071	2.15556
268.071	2.15556
267.762	2.19579
267.462	2.23595
267.171	2.27606
266.888	2.31611
266.612	2.35612
266.344	2.39609
266.083	2.43602
265.828	2.47592
265.579	2.5158
265.335	2.55565
265.097	2.5955
264.863	2.63533
264.633	2.67516
264.407	2.71499
264.185	2.75482
263.965	2.79467
263.747	2.83454
263.532	2.87443
263.318	2.91435
263.106	2.9543
263.106	2.9543
262.953	2.96453
262.794	2.97446
262.622	2.98426
262.622	2.98426
262.212	3.06949
261.846	3.14127
261.526	3.20064
261.254	3.24861
261.033	3.28622
260.865	3.31451
260.752	3.33449
260.706	3.35367
260.698	3.3472
260.118	3.34582
258.94	3.43296
258.261	3.47727
257.914	3.50276
257.914	3.50276
257.761	3.50471
257.595	3.50665
257.423	3.5086
257.423	3.5086
256.987	3.5569
256.363	3.5936
255.608	3.63623
255.493	3.65773
253.616	3.68176
251.754	3.70297
249.873	3.72247
247.943	3.74136
247.943	3.74136
246.713	3.76707
245.336	3.78987
243.877	3.81103
242.397	3.83179
240.955	3.85343
239.605	3.87719
238.401	3.90433
238.401	3.90433
238.154	3.90685
237.664	3.91642
236.596	3.94072
234.636	3.98741
231.505	4.06419
231.505	4.06419
230.411	4.10196
229.202	4.13306
227.965	4.1669
