Uv/Vis Spectrum: 2H-3,1-Benzoxazine-2, 4 (1H)-dione
Formula: C8H5O3
CAS: 118-48-9
Melting point: 239-240
Instrument: Cary 14
Origin: INSTITUTE OF ENERGY PROBLEMS OF CHEMICAL PHYSICS, RAS
Wavelength (nm)	Logarithm epsilon
273	3.435
273.217	3.392
274.017	3.258
274.817	3.15
275.337	3.073
275.924	3.002
276.838	2.918
277.569	2.841
278.482	2.746
279.396	2.641
280.409	2.544
281.209	2.48
282.009	2.442
282.809	2.424
283.609	2.424
284.409	2.435
285.209	2.454
286.009	2.475
286.809	2.495
288.072	2.529
288.872	2.55
289.672	2.572
290.472	2.594
291.272	2.616
292.072	2.639
292.872	2.661
293.672	2.684
294.472	2.707
295.272	2.729
296.072	2.752
296.872	2.774
297.672	2.797
298.472	2.819
299.272	2.841
300.072	2.863
300.872	2.884
301.672	2.906
302.472	2.927
303.272	2.947
304.072	2.967
304.872	2.987
305.672	3.007
306.472	3.026
307.272	3.045
308.072	3.063
308.872	3.081
309.672	3.099
310.472	3.116
311.272	3.133
312.072	3.15
312.872	3.167
313.672	3.183
314.472	3.199
315.272	3.214
316.072	3.23
316.872	3.245
317.672	3.26
318.472	3.275
319.272	3.291
320.072	3.306
320.872	3.321
321.672	3.336
322.472	3.351
323.272	3.367
323.868	3.377
324.668	3.393
325.468	3.409
326.268	3.424
327.068	3.439
327.868	3.452
328.668	3.465
329.468	3.477
330.268	3.488
331.068	3.499
331.868	3.509
332.668	3.518
333.468	3.527
334.268	3.534
335.068	3.542
335.868	3.548
336.668	3.554
337.468	3.56
338.268	3.565
339.068	3.569
339.868	3.573
340.668	3.576
341.468	3.578
342.268	3.581
343.068	3.582
343.868	3.583
344.668	3.584
345.468	3.584
346.268	3.583
347.068	3.582
347.868	3.581
348.668	3.579
349.468	3.576
350.268	3.573
351.068	3.569
351.868	3.565
352.668	3.56
353.468	3.555
354.268	3.549
355.068	3.542
355.868	3.535
356.668	3.527
357.468	3.518
358.268	3.509
359.068	3.499
359.868	3.488
360.668	3.476
361.468	3.463
362.268	3.449
363.068	3.435
363.806	3.423
364.606	3.404
365.406	3.384
366.206	3.364
367.006	3.344
367.806	3.323
368.606	3.302
369.406	3.28
370.206	3.258
371.006	3.234
371.806	3.21
372.606	3.185
373.406	3.159
374.206	3.131
375.006	3.103
375.806	3.073
376.606	3.042
377.406	3.01
378.206	2.977
379.006	2.942
379.806	2.906
380.606	2.868
381.406	2.829
382.206	2.789
383.006	2.747
383.806	2.704
384.606	2.66
385.406	2.614
386.206	2.567
387.006	2.518
387.806	2.468
388.606	2.417
