Uv/Vis Spectrum: Benzoic acid, 2-chloro-
Formula: C7H5ClO2
CAS: 118-91-2
Melting point: 142
Boiling point: sub
Instrument: Beckman DU
Origin: INSTITUTE OF ENERGY PROBLEMS OF CHEMICAL PHYSICS, RAS
Wavelength (nm)	Logarithm epsilon
203.462	4.32395
203.612	4.32087
203.813	4.31778
203.964	4.31775
204.114	4.31365
204.816	4.29724
204.964	4.29008
205.115	4.287
205.315	4.2829
205.463	4.27268
205.613	4.2696
205.813	4.26244
205.962	4.2563
206.111	4.24914
206.31	4.24198
206.46	4.23584
206.608	4.22868
206.808	4.22152
206.957	4.21538
207.106	4.20822
207.307	4.20513
207.455	4.19492
207.603	4.18776
207.802	4.17754
207.951	4.17038
208.1	4.16425
208.298	4.15402
208.446	4.14381
208.595	4.13665
208.794	4.12949
208.943	4.12335
209.091	4.11313
209.289	4.10291
209.437	4.0927
209.586	4.08554
209.784	4.07532
209.932	4.0651
210.081	4.05795
210.571	4.0171
210.772	4.01402
210.917	3.99667
211.065	3.98645
211.263	3.97623
211.412	3.97009
211.558	3.9558
212.256	3.9292
212.406	3.9251
212.755	3.91485
212.905	3.90871
213.254	3.89847
213.403	3.89131
213.754	3.88413
214.557	3.87075
214.911	3.8707
215.564	3.86041
215.916	3.8573
216.268	3.85317
216.772	3.85003
217.276	3.8469
217.428	3.84688
217.93	3.83967
218.283	3.83656
218.938	3.83238
219.443	3.8323
219.593	3.82922
219.944	3.82204
220.449	3.82196
221.105	3.8188
221.808	3.8085
222.11	3.8054
222.816	3.80122
223.32	3.79808
223.471	3.79806
223.974	3.79085
224.326	3.78774
224.981	3.78458
225.335	3.78453
225.637	3.78041
225.988	3.77424
226.643	3.77006
227.147	3.76693
227.5	3.76687
227.851	3.75969
228.153	3.75658
228.657	3.75345
229.362	3.74621
229.864	3.739
230.166	3.73589
230.869	3.7256
231.021	3.72557
231.373	3.72246
231.523	3.71836
232.024	3.70504
232.175	3.70501
232.526	3.69783
232.676	3.69475
233.377	3.67731
233.528	3.67423
233.679	3.67421
233.88	3.67112
234.53	3.6537
234.679	3.64654
234.88	3.64345
235.031	3.64343
235.182	3.64035
235.381	3.63318
235.532	3.6301
235.682	3.626
235.882	3.62291
236.181	3.60962
236.381	3.60551
236.53	3.59938
236.88	3.58913
237.029	3.58197
237.378	3.56867
237.528	3.56457
237.876	3.55127
238.174	3.53797
238.524	3.52773
238.672	3.51751
238.87	3.50729
239.018	3.49708
239.166	3.48686
239.366	3.48276
239.514	3.47254
239.663	3.4664
239.862	3.45618
240.01	3.44902
240.158	3.43881
240.357	3.43165
240.505	3.42143
240.655	3.41529
240.853	3.40507
241.15	3.39076
241.5	3.38051
241.649	3.37437
241.849	3.36721
241.997	3.35699
242.147	3.35391
242.346	3.34675
242.495	3.33959
242.845	3.32935
242.994	3.32321
243.344	3.31296
243.493	3.30581
243.993	3.29248
244.142	3.28532
244.343	3.28224
244.493	3.27814
244.642	3.272
244.842	3.26483
244.99	3.25768
245.34	3.24743
245.488	3.23722
245.636	3.227
245.835	3.22086
245.982	3.20657
246.129	3.19635
246.328	3.18613
246.475	3.17591
246.621	3.15958
246.815	3.13917
246.963	3.12896
247.106	3.10447
247.304	3.09425
247.448	3.07385
247.59	3.05038
247.785	3.02997
249.061	2.93091
249.261	2.92477
249.407	2.91047
249.557	2.90434
249.755	2.89412
249.904	2.88696
250.052	2.87674
250.252	2.87366
250.401	2.8665
250.549	2.85628
250.75	2.8532
250.899	2.84604
252.546	2.79177
252.748	2.79174
252.898	2.78764
253.047	2.7815
253.248	2.7774
253.748	2.76407
253.898	2.76099
254.049	2.76097
254.402	2.75684
254.751	2.74659
254.902	2.74351
255.052	2.74043
255.404	2.7363
255.556	2.73628
256.409	2.7229
256.763	2.72285
257.065	2.71974
257.417	2.71561
258.93	2.70927
260.09	2.70501
261.607	2.70886
262.113	2.71184
262.823	2.71887
263.481	2.72183
263.987	2.72481
264.14	2.72886
264.343	2.73189
264.647	2.7349
265.002	2.73893
265.357	2.74193
265.664	2.75208
266.019	2.75508
266.374	2.7591
266.526	2.76214
266.679	2.76517
266.883	2.76922
267.187	2.77223
267.695	2.77929
267.898	2.78231
268.202	2.78532
268.406	2.78937
268.916	2.80254
269.22	2.80556
269.423	2.8096
269.576	2.81264
270.084	2.81969
270.236	2.82273
270.594	2.83287
270.746	2.8359
271.101	2.83992
271.609	2.84596
271.762	2.85002
272.268	2.853
272.471	2.85602
272.778	2.86617
273.133	2.87019
273.488	2.8732
274.148	2.88329
274.503	2.88629
275.01	2.89029
275.162	2.89333
275.315	2.89636
275.67	2.90038
276.025	2.90339
276.531	2.90637
276.836	2.9104
277.039	2.91343
277.343	2.91644
277.85	2.92044
278.558	2.92339
280.881	2.92304
281.234	2.91993
281.586	2.9158
282.389	2.90243
282.591	2.9024
282.891	2.89522
283.093	2.89519
283.243	2.88905
283.743	2.8747
283.893	2.87162
284.094	2.86853
284.244	2.86443
284.394	2.86135
284.594	2.85419
284.744	2.85111
284.894	2.84803
285.095	2.84392
285.244	2.83778
285.396	2.83776
285.745	2.82752
285.896	2.82342
286.096	2.82033
286.248	2.8203
286.398	2.81723
286.599	2.81312
287.098	2.79673
287.248	2.79264
287.397	2.7865
287.598	2.78239
287.747	2.77625
288.247	2.76191
288.595	2.7486
288.744	2.74145
289.094	2.7312
289.392	2.71791
289.591	2.71074
289.739	2.70053
289.889	2.69439
290.088	2.68723
290.237	2.68007
290.385	2.66986
290.585	2.66677
290.733	2.65655
290.882	2.6494
291.079	2.63612
291.229	2.63304
291.376	2.61874
291.574	2.60852
291.723	2.60238
291.869	2.58809
292.069	2.58195
292.217	2.57173
292.363	2.55744
292.56	2.54416
292.708	2.53395
292.855	2.52068
293.05	2.50332
293.195	2.48597
293.341	2.46964
293.536	2.45228
293.683	2.43901
293.827	2.41861
294.02	2.39412
294.165	2.37779
294.308	2.3533
294.502	2.33289
294.645	2.30943
294.786	2.28189
294.981	2.26147
295.123	2.23495
295.266	2.21455
295.458	2.187
295.606	2.17678
295.746	2.14619
295.941	2.12577
296.082	2.09823
297.035	1.94521
297.186	1.94213
297.379	1.91865
297.524	1.90131
297.667	1.87784
297.861	1.85743
298.004	1.83295
298.147	1.80948
298.34	1.78601
298.482	1.76153
298.626	1.74112
298.818	1.71459
298.962	1.69419
299.105	1.6697
299.301	1.65337
299.442	1.62583
299.586	1.60542
299.779	1.58195
299.921	1.55441
300.064	1.53095
300.255	1.5034
300.401	1.48605
300.542	1.45953
302.311	1.19019
302.454	1.16672
302.648	1.14631
302.79	1.11877
302.935	1.10244
303.127	1.07489
303.271	1.05449
303.415	1.03408
303.609	1.01367
303.754	0.996319
303.897	0.972855
304.094	0.959576
