Uv/Vis Spectrum: Ethanone, 1-(2-hydroxyphenyl)-
Formula: C8H8O2
CAS: 118-93-4
Boiling point: 106/ 17 mm
Instrument: Beckman DU
Origin: INSTITUTE OF ENERGY PROBLEMS OF CHEMICAL PHYSICS, RAS
Wavelength (nm)	Logarithm epsilon
214.26	4.245
214.77	4.24
215.32	4.233
216.28	4.215
217.28	4.191
218.29	4.164
219.3	4.133
220.3	4.106
221.31	4.069
222.32	4.021
223.32	3.984
224.33	3.916
225.34	3.844
226.34	3.77
227.5	3.677
228.36	3.559
229.36	3.45
230	3.414
230.59	3.396
231.32	3.384
232.38	3.382
233.28	3.384
234.4	3.399
235.43	3.416
236.25	3.436
237.62	3.474
238.42	3.505
239.43	3.552
240.44	3.6
241.44	3.637
242.45	3.674
243.46	3.708
244.46	3.739
245.47	3.773
246.48	3.804
247.48	3.834
248.25	3.856
249.5	3.882
250.5	3.895
251.51	3.906
252.49	3.914
253.52	3.916
254.48	3.909
255.54	3.889
256.54	3.865
257.55	3.834
258.56	3.79
259.56	3.749
260.57	3.698
261.58	3.634
262.58	3.573
263.59	3.501
264.6	3.406
265.6	3.321
266.61	3.205
267.62	3.117
268.62	3.056
269.63	3.008
270.64	2.927
271.64	2.855
272.65	2.787
273.66	2.723
274.66	2.685
275.67	2.668
276.68	2.668
277.68	2.675
278.69	2.689
279.7	2.706
280.69	2.715
281.81	2.715
282.72	2.709
283.72	2.702
284.73	2.692
285.74	2.685
286.74	2.685
287.75	2.692
288.76	2.719
289.77	2.753
290.77	2.791
291.78	2.832
292.79	2.869
293.79	2.91
294.8	2.947
295.81	2.985
296.81	3.025
297.82	3.059
298.83	3.09
299.83	3.117
300.84	3.148
301.85	3.178
302.85	3.202
303.86	3.226
304.87	3.246
305.87	3.267
306.88	3.284
307.89	3.301
308.99	3.319
309.97	3.336
310.95	3.353
311.91	3.365
312.92	3.379
313.93	3.392
315.19	3.404
315.98	3.413
316.95	3.42
317.95	3.43
318.96	3.437
319.98	3.446
320.97	3.454
321.94	3.461
322.99	3.464
323.99	3.467
325	3.467
326.01	3.467
327.01	3.467
328.02	3.467
329.03	3.467
330.03	3.467
331.04	3.464
332.05	3.46
333.05	3.45
334.06	3.447
335.07	3.433
336.07	3.426
337.08	3.413
338.09	3.399
339.09	3.382
340.1	3.362
341.11	3.345
342.11	3.324
343.12	3.294
344.13	3.267
345.13	3.243
346.14	3.212
347.15	3.178
348.15	3.144
349.16	3.11
350.17	3.073
351.17	3.029
352.18	2.988
353.19	2.94
354.19	2.893
355.2	2.845
356.21	2.798
357.21	2.747
358.22	2.696
359.23	2.638
360.23	2.583
361.24	2.529
362.25	2.464
363.26	2.407
364.26	2.339
365.27	2.274
366.28	2.21
367.33	2.134
368.22	2.069
369.3	1.992
370.3	1.927
371.42	1.839
372.32	1.761
373.32	1.676
374.39	1.588
375.34	1.52
376.34	1.438
377.35	1.356
378.36	1.272
379.36	1.183
380.37	1.088
