Uv/Vis Spectrum: Cinchonine
Formula: C19H22N2O
CAS: 118-10-5
Melting point: 265
Instrument: n.i.g.
Origin: INSTITUTE OF ENERGY PROBLEMS OF CHEMICAL PHYSICS, RAS
Wavelength (nm)	Logarithm epsilon
252.22	3.309
252.41	3.311
252.59	3.313
252.78	3.315
252.96	3.316
253.15	3.318
253.33	3.319
253.52	3.321
254.03	3.326
254.44	3.331
255.16	3.339
256.11	3.352
256.67	3.359
257.24	3.366
257.78	3.373
258.33	3.378
258.89	3.385
259.94	3.398
260.56	3.407
261.11	3.415
261.67	3.423
262.22	3.431
262.75	3.437
263.39	3.446
263.89	3.453
264.45	3.46
265	3.468
265.58	3.476
266.11	3.486
266.71	3.496
267.22	3.504
267.78	3.512
268.33	3.518
268.89	3.525
269.49	3.532
270	3.539
270.56	3.546
271.11	3.554
271.67	3.56
272.22	3.566
272.8	3.572
273.33	3.578
273.89	3.583
274.44	3.588
276.11	3.605
276.67	3.609
277.22	3.613
277.78	3.617
278.33	3.622
278.89	3.625
279.44	3.628
280.02	3.631
280.56	3.633
281.13	3.635
281.67	3.638
283.33	3.644
283.89	3.645
284.44	3.647
285	3.649
285.56	3.65
286.11	3.651
286.67	3.652
287.63	3.653
288.33	3.654
288.89	3.654
289.6	3.653
291.11	3.651
291.67	3.649
292.29	3.646
293.33	3.642
293.89	3.638
294.44	3.635
295	3.633
295.56	3.63
296.11	3.626
296.89	3.62
297.78	3.616
298.33	3.616
298.89	3.62
299.44	3.625
300	3.629
300.56	3.634
301.11	3.638
301.67	3.643
302.22	3.643
302.76	3.641
303.33	3.635
303.89	3.628
304.44	3.62
305.56	3.605
306.11	3.598
306.62	3.592
307.22	3.583
307.78	3.573
308.36	3.563
308.89	3.556
309.44	3.547
310	3.543
310.56	3.542
311.1	3.543
311.67	3.55
312.21	3.561
312.78	3.572
313.33	3.58
313.91	3.589
314.42	3.599
314.73	3.61
315	3.615
315.28	3.612
315.56	3.604
316.11	3.579
316.67	3.553
317.22	3.521
317.78	3.486
318.33	3.447
318.89	3.413
319.44	3.368
320	3.325
320.44	3.299
321.11	3.264
321.65	3.234
322.22	3.203
322.78	3.174
323.33	3.148
323.84	3.122
324.44	3.088
325.51	3.036
326.11	3.01
328.33	2.93
329.06	2.896
329.61	2.873
330	2.856
331.55	2.794
332.22	2.766
332.78	2.744
333.33	2.721
333.89	2.696
335.15	2.634
336.67	2.56
337.22	2.537
337.78	2.512
338.36	2.484
338.89	2.458
339.72	2.408
342.22	2.259
