Uv/Vis Spectrum: Benzophenone
Formula: C13H10O
CAS: 119-61-9
Melting point: 47.8
Boiling point: 305.4
Instrument: n.i.g.
Origin: INSTITUTE OF ENERGY PROBLEMS OF CHEMICAL PHYSICS, RAS
Wavelength (nm)	Logarithm epsilon
240.347	4.16392
240.678	4.16491
241.017	4.16608
241.375	4.16763
241.375	4.16763
241.466	4.17204
241.574	4.17683
241.688	4.18511
241.69	4.1837
241.691	4.18266
241.691	4.18181
241.691	4.18181
245.597	4.24122
245.802	4.24378
246.017	4.24634
246.25	4.24891
246.25	4.24891
246.535	4.25319
246.819	4.25765
247.103	4.26248
247.103	4.26248
247.434	4.26368
247.774	4.26525
248.131	4.26702
248.131	4.26702
248.224	4.26896
248.335	4.27126
248.455	4.27376
248.455	4.27376
248.742	4.27577
249.029	4.27815
249.315	4.28072
249.315	4.28072
249.698	4.28173
251.42	4.28242
251.71	4.28167
256.776	4.21181
258.027	4.18492
258.705	4.17084
259.391	4.15749
259.391	4.15749
259.517	4.15423
259.633	4.15098
259.731	4.14771
265.156	4.05072
265.232	4.04497
265.29	4.0392
265.338	4.03344
265.338	4.03344
265.797	4.02869
266.256	4.02413
266.715	4.01994
266.715	4.01994
266.843	4.01528
266.971	4.01098
267.099	4.00687
267.099	4.00687
267.389	4.00451
267.67	4.00214
267.932	3.99977
267.932	3.99977
268.36	3.98366
268.778	3.96791
269.177	3.95234
269.177	3.95234
269.305	3.94909
269.432	3.94583
269.559	3.94258
269.559	3.94258
269.636	3.93541
269.695	3.92861
269.745	3.92199
270.993	3.87126
271.159	3.87218
271.334	3.87329
271.526	3.87478
273.584	3.84089
273.662	3.83269
273.722	3.82466
273.773	3.817
273.773	3.817
273.972	3.81216
274.152	3.80748
274.324	3.80318
274.324	3.80318
274.451	3.79851
274.568	3.79421
274.667	3.79009
274.667	3.79009
274.793	3.78769
274.919	3.78548
275.045	3.78363
275.045	3.78363
275.172	3.77876
275.29	3.77406
275.389	3.76972
276.453	3.73875
276.462	3.72966
276.471	3.72057
276.48	3.71149
279.321	3.59611
279.393	3.59473
279.446	3.59371
279.49	3.59287
279.49	3.59287
279.622	3.58469
279.753	3.57669
279.885	3.56906
279.885	3.56906
280.011	3.56523
280.128	3.56175
280.226	3.55846
280.226	3.55846
281.262	3.5118
281.419	3.46828
281.557	3.42512
284.026	3.35091
284.106	3.34185
284.167	3.33279
284.219	3.32372
284.219	3.32372
284.348	3.31799
284.478	3.31225
284.608	3.30652
284.608	3.30652
284.738	3.29834
284.859	3.29034
284.962	3.2827
284.962	3.2827
285.309	3.26698
285.668	3.24925
286.045	3.2319
286.045	3.2319
286.124	3.2237
286.184	3.21567
286.234	3.20801
290.406	2.95929
290.406	2.95929
290.546	2.94285
290.687	2.9266
290.826	2.91071
290.826	2.91071
290.959	2.90026
291.082	2.89018
291.187	2.88028
291.187	2.88028
291.313	2.87702
291.429	2.87376
291.527	2.8705
295.025	2.63473
295.386	2.63347
295.728	2.63257
296.061	2.63184
296.061	2.63184
296.309	2.62949
296.549	2.62732
296.769	2.62551
296.769	2.62551
296.894	2.62309
297.01	2.62065
297.107	2.61821
297.851	2.5764
301.038	2.48592
301.117	2.47771
301.177	2.46969
301.228	2.46203
302.8	2.41803
302.805	2.41311
302.809	2.40836
302.814	2.40399
303.905	2.34517
305.183	2.26446
305.183	2.26446
305.207	2.28372
306.762	2.20146
308.292	2.12856
308.423	2.12197
313.78	2.09271
314.275	2.09398
314.78	2.09562
315.303	2.09745
315.303	2.09745
316.371	2.10452
317.448	2.11178
318.543	2.11941
318.543	2.11941
318.874	2.1204
319.214	2.12157
319.572	2.12313
325.022	2.1658
325.762	2.16943
326.501	2.17325
327.24	2.17743
327.24	2.17743
327.447	2.17941
327.661	2.18176
327.894	2.1843
327.894	2.1843
329.092	2.18564
330.299	2.18716
331.524	2.18906
337.365	2.17074
337.823	2.16762
338.28	2.1645
338.737	2.16137
338.737	2.16137
338.809	2.15999
338.862	2.15897
338.906	2.15814
338.906	2.15814
339.921	2.14584
340.593	2.13818
341.496	2.1286
341.496	2.1286
341.781	2.12323
342.009	2.11968
342.377	2.1149
348.111	2.03787
348.363	2.03221
348.606	2.02674
348.83	2.02163
348.83	2.02163
348.903	2.01918
348.957	2.01672
349.002	2.01426
349.002	2.01426
349.294	2.01193
349.585	2.00978
349.876	2.008
349.876	2.008
350.933	1.98305
351.99	1.95847
353.047	1.93407
357.929	1.84264
358.181	1.83552
358.356	1.83131
358.606	1.82639
358.606	1.82639
359.241	1.80935
359.865	1.79378
360.726	1.77187
360.726	1.77187
360.976	1.76726
361.218	1.76301
361.44	1.75893
361.44	1.75893
361.568	1.75406
361.686	1.74936
361.785	1.74503
361.785	1.74503
362.038	1.73793
362.282	1.73121
362.507	1.72466
367.753	1.5995
367.827	1.59622
367.882	1.59294
367.928	1.58965
367.928	1.58965
368.055	1.58639
368.183	1.58314
368.31	1.57989
368.31	1.57989
368.483	1.57172
368.656	1.56374
368.829	1.55613
368.829	1.55613
369.081	1.55045
369.324	1.54476
369.548	1.53906
369.548	1.53906
369.68	1.52944
369.803	1.52019
369.906	1.51111
369.906	1.51111
370.158	1.50546
370.401	1.49998
370.625	1.49487
373.827	1.38955
374.068	1.38472
374.29	1.38007
374.502	1.37577
374.502	1.37577
374.578	1.37005
374.635	1.3645
374.683	1.35932
374.683	1.35932
374.939	1.35033
375.185	1.34134
375.413	1.33234
375.413	1.33234
375.587	1.32274
375.762	1.31351
375.936	1.30446
378.836	1.17175
379.145	1.1498
379.445	1.12823
379.726	1.10682
379.726	1.10682
379.857	1.10026
379.987	1.0937
380.118	1.08715
380.118	1.08715
380.372	1.06849
380.608	1.05019
380.834	1.03207
380.834	1.03207
380.932	1.01479
381.021	0.997679
381.091	0.980935
381.421	0.981066
381.64	0.981157
381.877	0.981252
382.123	0.981347
