Uv/Vis Spectrum: Phenol, 2-cyclohexyl-
Formula: C12H16O
CAS: 119-42-6
Instrument: unknown
Origin: INSTITUTE OF ENERGY PROBLEMS OF CHEMICAL PHYSICS, RAS
Wavelength (nm)	Logarithm epsilon
217.48	3.813
218.71	3.8
219.44	3.788
220.43	3.77
221.42	3.748
222.4	3.722
223.39	3.68
224.38	3.651
225.37	3.609
226.36	3.55
227.35	3.491
228.33	3.39
229.32	3.285
230.31	3.167
231.3	3.037
232.29	2.94
233.28	2.785
234.26	2.642
235.25	2.503
236.24	2.394
237.23	2.318
238.22	2.238
239.21	2.2
240.2	2.188
241.18	2.179
242.17	2.192
243.16	2.221
244.15	2.268
245.15	2.326
246.13	2.377
247.1	2.43
248.1	2.478
249.1	2.522
250.08	2.562
251.07	2.604
252.06	2.659
253.04	2.705
254.03	2.751
255.02	2.797
256.01	2.839
257	2.882
257.99	2.919
258.98	2.966
259.96	3.008
261.02	3.058
261.94	3.1
262.93	3.138
263.92	3.172
264.91	3.205
265.91	3.232
266.88	3.256
268.05	3.277
268.93	3.293
269.85	3.306
270.84	3.319
271.82	3.327
272.84	3.335
273.79	3.338
274.79	3.336
275.78	3.331
276.77	3.323
277.75	3.306
278.74	3.285
279.73	3.264
280.72	3.235
281.71	3.193
282.7	3.134
283.18	3.085
283.64	3.025
284.18	2.94
284.67	2.848
285.13	2.76
285.66	2.663
286.1	2.595
286.54	2.529
287.09	2.457
287.64	2.39
288.63	2.284
