Uv/Vis Spectrum: Cyclobutanone
Formula: C4H6O
CAS: 1191-95-3
Melting point: -50.9
Boiling point: 99
Instrument: Cary 14R
Origin: INSTITUTE OF ENERGY PROBLEMS OF CHEMICAL PHYSICS, RAS
Wavelength (nm)	Logarithm epsilon
240.496	0.560588
241.308	0.572639
242.368	0.593607
244.285	0.628787
244.285	0.628787
244.754	0.640143
245.418	0.653415
246.208	0.671015
246.208	0.671015
246.658	0.678455
247.198	0.690054
247.649	0.697177
247.649	0.697177
248.708	0.724612
249.49	0.742159
250.14	0.758518
250.14	0.758518
250.481	0.763293
250.897	0.772314
251.516	0.784767
251.516	0.784767
252.266	0.80315
252.916	0.81814
253.565	0.832656
254.312	0.849217
255.254	0.869965
256.488	0.896526
256.488	0.896526
258.225	0.936338
259.194	0.957727
259.711	0.968772
260.087	0.975694
260.087	0.975694
261.736	1.01011
262.936	1.0339
263.776	1.05011
264.343	1.06097
264.724	1.06829
265.006	1.07365
265.276	1.07852
265.276	1.07852
265.552	1.08235
265.766	1.08621
266.042	1.08997
266.042	1.08997
266.787	1.10577
267.471	1.11836
268.682	1.13828
268.682	1.13828
268.953	1.14199
269.232	1.14565
269.515	1.14929
269.515	1.14929
269.533	1.15091
269.555	1.15253
269.584	1.15413
269.584	1.15413
270.184	1.16183
270.784	1.16939
271.383	1.17682
271.383	1.17682
272.218	1.17953
272.663	1.18051
272.688	1.17971
272.771	1.1797
272.858	1.17969
272.952	1.17968
273.101	1.18061
273.101	1.18061
273.552	1.17614
274.152	1.17001
275.193	1.16103
275.193	1.16103
275.49	1.16079
275.786	1.1605
276.082	1.16013
276.082	1.16013
276.633	1.16832
276.906	1.17285
277.136	1.17768
277.136	1.17768
277.274	1.18489
277.412	1.19207
277.55	1.19917
277.55	1.19917
277.639	1.20061
277.735	1.20209
277.834	1.20364
277.834	1.20364
278.049	1.20362
278.181	1.2036
278.199	1.20504
278.317	1.20359
278.461	1.20357
278.567	1.20647
278.943	1.20798
278.943	1.20798
279.085	1.21884
279.227	1.22947
279.369	1.23992
279.369	1.23992
279.575	1.24286
279.717	1.24186
279.787	1.24578
279.93	1.24156
280.001	1.24592
280.004	1.24868
280.049	1.24499
280.093	1.24413
280.13	1.2433
280.14	1.24134
280.342	1.24114
280.342	1.24114
280.453	1.23606
280.563	1.23098
280.673	1.22588
280.673	1.22588
280.982	1.21982
281.264	1.213
281.53	1.2077
281.53	1.2077
281.658	1.20351
281.84	1.19878
282.01	1.19192
282.01	1.19192
282.123	1.1908
282.234	1.18973
282.336	1.18874
282.336	1.18874
282.382	1.18538
282.425	1.18199
282.459	1.17859
282.459	1.17859
282.674	1.17598
282.885	1.17207
283.27	1.16342
283.27	1.16342
283.889	1.1556
284.505	1.14765
285.113	1.13954
285.113	1.13954
285.502	1.1372
285.883	1.13485
286.261	1.13248
286.261	1.13248
286.586	1.1328
286.904	1.13302
287.218	1.1332
287.218	1.1332
287.52	1.13593
287.702	1.13862
287.918	1.14353
287.918	1.14353
288.094	1.15868
288.267	1.17327
288.433	1.18731
288.433	1.18731
288.567	1.1897
288.617	1.19086
288.668	1.1921
288.718	1.19338
289.239	1.18625
289.799	1.18566
289.837	1.18488
290.095	1.18729
290.237	1.18848
290.347	1.19024
290.555	1.18332
290.555	1.18332
290.874	1.16989
291.138	1.15948
291.491	1.14694
292.074	1.12641
292.074	1.12641
292.794	1.10812
293.287	1.09589
293.781	1.08477
294.505	1.06915
294.505	1.06915
295.235	1.05666
295.823	1.04683
296.579	1.03466
299.647	0.989414
299.647	0.989414
300.043	0.986328
300.616	0.979603
301.286	0.972957
301.286	0.972957
301.786	0.965987
302.274	0.960095
302.644	0.954638
302.644	0.954638
303.54	0.946629
304.48	0.936106
305.102	0.926893
305.102	0.926893
305.669	0.920019
306.178	0.912812
306.658	0.907852
306.658	0.907852
307.743	0.886812
308.479	0.871053
309.202	0.853193
310.248	0.824458
310.248	0.824458
311.049	0.793427
311.596	0.768498
312.143	0.74127
312.943	0.700833
312.943	0.700833
314.4	0.630357
315.203	0.587273
315.637	0.565222
315.988	0.551182
315.988	0.551182
316.195	0.53695
316.497	0.520837
316.802	0.501319
316.802	0.501319
317.926	0.446755
318.474	0.421242
318.913	0.407629
318.913	0.407629
319.026	0.396234
319.135	0.384801
319.238	0.373611
319.238	0.373611
319.467	0.36646
319.697	0.35976
319.927	0.353224
319.927	0.353224
320.283	0.3274
320.901	0.293296
321.497	0.250591
321.497	0.250591
322.109	0.225645
322.876	0.1813
324.22	0.096423
324.22	0.096423
324.312	0.079904
324.398	0.06277
324.48	0.044932
324.48	0.044932
324.877	0.033745
325.426	0.006594
326.599	-0.067374
326.599	-0.067374
326.885	-0.105241
327.401	-0.163676
327.828	-0.240861
328.091	-0.262092
328.158	-0.250496
328.229	-0.236872
328.307	-0.222718
