Uv/Vis Spectrum: bis[4-(dimethylamino)phenyl]methanol
Formula: C17H22N2O
CAS: 119-58-4
Melting point: 101
Instrument: SF-4A
Origin: INSTITUTE OF ENERGY PROBLEMS OF CHEMICAL PHYSICS, RAS
Wavelength (nm)	Logarithm epsilon
220.4	3.758
221.9	3.768
223.4	3.787
224.9	3.812
226.4	3.843
227.9	3.878
229.4	3.917
230.9	3.956
232.4	3.996
233.9	4.035
235.4	4.072
236.9	4.107
238.4	4.14
239.9	4.17
239.967	4.171
241.467	4.2
242.967	4.226
244.467	4.25
245.967	4.274
247.467	4.299
248.967	4.325
250.467	4.349
251.967	4.373
253.467	4.394
254.967	4.411
256.467	4.424
258.145	4.436
259.645	4.449
261.145	4.463
262.645	4.475
264.145	4.483
265.645	4.487
267.145	4.481
268.645	4.464
270.145	4.432
271.645	4.379
273.145	4.303
273.338	4.287
274.838	4.196
276.338	4.112
277.838	4.035
279.338	3.964
280.838	3.9
282.338	3.843
283.838	3.793
285.338	3.752
286.838	3.718
288.338	3.692
289.838	3.674
291.338	3.663
292.838	3.656
294.338	3.654
295.838	3.653
297.266	3.653
298.766	3.643
300.266	3.63
301.766	3.619
303.266	3.61
304.766	3.603
306.266	3.593
307.766	3.579
309.266	3.559
310.766	3.53
312.266	3.493
313.766	3.447
315.266	3.395
316.766	3.336
318.266	3.273
319.766	3.203
321.266	3.121
322.766	3.015
324.266	2.866
