Uv/Vis Spectrum: Ethanone, 1-(2-furanyl)-
Formula: C6H6O2
CAS: 1192-62-7
Melting point: 30-32
Instrument: Beckman DU
Origin: INSTITUTE OF ENERGY PROBLEMS OF CHEMICAL PHYSICS, RAS
Wavelength (nm)	Logarithm epsilon
205.09	3.052
206.62	3.052
207.81	3.072
208.66	3.096
209.68	3.116
210.7	3.14
211.55	3.164
212.56	3.188
213.24	3.215
214.09	3.238
214.94	3.266
215.79	3.289
216.98	3.31
217.83	3.334
219.02	3.354
220.04	3.374
221.39	3.391
222.75	3.401
224.28	3.408
225.81	3.415
227.34	3.405
228.87	3.401
230.05	3.384
231.41	3.367
232.77	3.35
234.13	3.34
235.49	3.327
237.02	3.323
238.54	3.33
239.56	3.354
240.41	3.378
241.26	3.405
241.94	3.432
242.62	3.459
243.13	3.486
243.81	3.513
244.66	3.541
245.34	3.568
246.18	3.595
246.86	3.622
247.54	3.649
248.22	3.676
249.07	3.703
249.92	3.731
250.6	3.758
251.45	3.785
252.3	3.812
253.15	3.839
254	3.866
254.84	3.894
255.86	3.917
256.54	3.944
257.56	3.965
258.58	3.989
259.43	4.012
260.45	4.033
261.47	4.056
262.48	4.08
263.67	4.101
265.03	4.114
266.22	4.131
267.58	4.148
269.11	4.155
270.47	4.165
271.99	4.155
273.52	4.145
274.88	4.131
276.24	4.114
277.43	4.097
278.62	4.077
279.63	4.056
280.48	4.033
281.33	4.009
282.35	3.985
282.86	3.958
283.71	3.931
284.22	3.904
284.9	3.877
285.41	3.849
285.75	3.819
286.26	3.792
286.77	3.765
287.11	3.734
287.44	3.703
287.78	3.673
288.29	3.646
288.63	3.615
288.97	3.585
289.48	3.558
289.65	3.527
290.16	3.496
290.5	3.466
291.01	3.435
291.18	3.405
291.52	3.374
292.03	3.347
292.54	3.317
292.88	3.286
293.22	3.255
293.73	3.225
294.07	3.194
294.41	3.164
294.75	3.133
295.26	3.103
295.6	3.072
296.1	3.042
296.44	3.011
296.78	2.981
297.12	2.95
297.63	2.919
297.97	2.889
298.31	2.858
298.82	2.831
299.16	2.801
299.5	2.77
300.01	2.743
300.35	2.712
300.69	2.682
301.03	2.651
301.54	2.624
301.88	2.594
302.22	2.563
302.56	2.533
303.24	2.505
303.75	2.478
304.08	2.448
304.59	2.421
305.27	2.393
305.78	2.366
306.63	2.342
307.14	2.315
308.16	2.292
309.01	2.264
309.86	2.241
310.71	2.217
311.73	2.193
312.4	2.166
313.42	2.146
314.44	2.122
315.29	2.098
316.48	2.078
317.33	2.054
318.18	2.03
319.2	2.01
320.22	1.989
321.4	1.969
322.25	1.945
323.27	1.925
324.12	1.898
325.14	1.874
326.16	1.85
327.01	1.827
328.03	1.806
328.88	1.782
329.72	1.755
330.57	1.728
331.42	1.704
332.27	1.677
333.12	1.653
333.63	1.626
334.65	1.603
335.33	1.575
336.18	1.552
336.86	1.524
337.36	1.497
338.21	1.47
338.89	1.443
339.74	1.419
340.25	1.392
341.1	1.368
341.61	1.341
342.29	1.314
343.14	1.287
343.65	1.26
344.33	1.233
344.84	1.205
345.35	1.178
346.19	1.151
346.87	1.124
347.38	1.097
347.89	1.07
348.4	1.043
348.91	1.015
349.59	0.988
350.1	0.961
350.61	0.934
350.95	0.903
351.63	0.876
351.97	0.846
352.48	0.819
352.99	0.791
353.5	0.764
354	0.737
354.51	0.71
354.85	0.679
355.36	0.652
355.87	0.625
356.38	0.598
356.89	0.571
357.4	0.54
357.91	0.51
358.42	0.483
358.93	0.455
359.44	0.428
