Uv/Vis Spectrum: 2-phenyl-5(4H)-oxazolone
Formula: C9H7NO2
CAS: 1199-01-5
Melting point: 91
Instrument: SF-4
Origin: INSTITUTE OF ENERGY PROBLEMS OF CHEMICAL PHYSICS, RAS
Wavelength (nm)	Logarithm epsilon
200.908	4.124
201.608	4.191
202.308	4.221
203.008	4.231
203.708	4.233
204.408	4.23
205.108	4.221
205.854	4.193
206.554	4.137
207.254	4.07
207.954	4.001
208.654	3.939
209.354	3.885
210.054	3.839
210.452	3.807
211.054	3.772
211.524	3.747
212.224	3.721
212.924	3.702
213.624	3.689
214.324	3.68
215.024	3.675
215.724	3.674
216.424	3.674
217.124	3.677
217.824	3.682
218.524	3.688
219.224	3.697
219.924	3.706
220.624	3.717
221.324	3.73
222.024	3.744
222.82	3.762
223.52	3.776
224.22	3.791
224.92	3.805
225.62	3.819
226.32	3.833
227.02	3.848
227.72	3.862
228.42	3.877
229.12	3.892
229.82	3.906
230.52	3.921
231.22	3.936
231.92	3.951
232.62	3.965
233.32	3.98
234.02	3.994
234.72	4.008
235.42	4.021
236.12	4.033
236.82	4.045
237.52	4.056
238.22	4.066
238.92	4.074
239.62	4.082
240.32	4.087
241.02	4.092
241.72	4.094
242.42	4.095
243.12	4.094
243.82	4.09
244.52	4.085
245.22	4.077
245.92	4.067
246.62	4.054
247.281	4.041
247.981	4.025
248.681	4.008
249.381	3.992
250.081	3.974
250.781	3.957
251.481	3.939
252.181	3.921
252.881	3.902
253.581	3.883
254.281	3.864
254.981	3.844
255.681	3.824
256.381	3.803
257.081	3.783
257.781	3.761
258.481	3.74
259.181	3.718
259.881	3.696
260.581	3.673
261.281	3.65
261.981	3.627
262.681	3.603
