Uv/Vis Spectrum: Pyrimidine, 4,6-dichloro-
Formula: C4H2Cl2N2
CAS: 1193-21-1
Melting point: 69-70
Instrument: SF-16
Origin: INSTITUTE OF ENERGY PROBLEMS OF CHEMICAL PHYSICS, RAS
Wavelength (nm)	Logarithm epsilon
203.42	3.886
206.34	3.848
207.81	3.82
209.27	3.782
210.74	3.725
212.2	3.677
213.66	3.625
215.13	3.564
216.59	3.502
218.06	3.412
219.52	3.326
220.98	3.236
222.45	3.17
223.91	3.065
225.38	2.989
226.84	2.952
228.3	2.928
229.77	2.918
231.23	2.933
232.7	2.98
235.62	3.07
237.09	3.146
238.55	3.217
240.02	3.288
241.48	3.326
242.94	3.388
244.41	3.435
245.87	3.478
247.34	3.511
248.8	3.54
250.26	3.559
251.73	3.573
253.19	3.592
254.66	3.592
256.12	3.568
257.58	3.53
259.05	3.492
260.51	3.44
261.98	3.322
263.44	3.217
264.9	3.094
266.37	2.98
267.83	2.909
269.3	2.757
270.76	2.672
272.22	2.596
273.69	2.529
