Uv/Vis Spectrum: Benzenamine, 2-nitro-N-phenyl-
Formula: C12H10N2O2
CAS: 119-75-5
Melting point: 75
Instrument: Zeiss PMQ II
Origin: INSTITUTE OF ENERGY PROBLEMS OF CHEMICAL PHYSICS, RAS
Wavelength (nm)	Logarithm epsilon
194.08	4.487
194.16	4.485
194.25	4.485
194.33	4.483
194.41	4.483
194.49	4.481
194.57	4.479
194.66	4.479
194.74	4.477
194.82	4.474
194.9	4.474
194.99	4.472
195.07	4.47
195.15	4.47
195.23	4.468
195.32	4.466
195.57	4.455
196.07	4.447
196.57	4.436
197.07	4.425
197.58	4.419
198.09	4.41
198.6	4.4
199.12	4.389
199.64	4.378
200.16	4.363
200.68	4.355
201.21	4.344
201.74	4.333
202.27	4.325
202.8	4.314
203.34	4.31
203.88	4.301
204.42	4.291
204.97	4.28
205.52	4.272
206.07	4.261
206.63	4.257
207.18	4.244
207.74	4.229
208.31	4.218
208.87	4.205
209.45	4.195
210.02	4.184
210.59	4.171
211.17	4.163
211.76	4.154
212.34	4.148
212.93	4.141
213.53	4.139
214.12	4.137
214.72	4.137
215.32	4.139
215.93	4.139
216.54	4.139
217.15	4.141
217.77	4.141
218.39	4.141
219.01	4.141
219.64	4.141
220.27	4.141
220.9	4.139
221.54	4.139
222.18	4.139
222.83	4.137
223.48	4.133
224.13	4.133
224.78	4.131
225.44	4.128
226.11	4.128
226.78	4.122
227.45	4.12
228.13	4.12
228.81	4.116
229.49	4.109
230.18	4.107
230.87	4.098
231.57	4.094
232.27	4.086
232.97	4.077
233.68	4.069
234.4	4.064
235.12	4.054
235.84	4.045
236.57	4.041
237.3	4.034
238.03	4.034
238.77	4.034
239.52	4.034
240.27	4.039
241.02	4.043
241.78	4.045
242.55	4.054
243.32	4.056
244.09	4.064
244.87	4.069
245.65	4.075
246.44	4.084
247.24	4.094
248.04	4.105
248.84	4.113
249.65	4.118
250.47	4.124
251.29	4.126
252.11	4.133
252.94	4.135
253.78	4.137
254.62	4.137
255.47	4.143
256.32	4.145
257.18	4.15
258.05	4.154
258.92	4.156
259.79	4.156
260.68	4.154
261.56	4.148
262.46	4.145
263.36	4.139
264.27	4.135
265.18	4.128
266.1	4.124
267.03	4.118
267.96	4.116
268.9	4.107
269.84	4.103
270.8	4.096
271.76	4.094
272.72	4.088
273.69	4.081
274.67	4.077
275.66	4.073
276.65	4.069
277.66	4.062
278.66	4.058
279.68	4.051
280.7	4.049
281.73	4.041
282.77	4.037
283.82	4.028
284.87	4.017
285.93	4.007
287	3.99
288.08	3.977
289.17	3.955
290.26	3.934
291.36	3.904
292.47	3.874
293.59	3.84
294.72	3.802
295.85	3.765
297	3.727
298.15	3.678
299.32	3.631
300.44	3.585
301.67	3.541
302.73	3.505
304.06	3.455
305.27	3.391
306.49	3.329
307.72	3.265
308.96	3.195
310.21	3.114
311.47	3.032
312.74	2.941
314.02	2.864
315.31	2.791
316.61	2.742
317.92	2.701
319.24	2.665
320.58	2.641
321.92	2.624
323.28	2.618
324.65	2.614
326.02	2.62
327.42	2.631
328.82	2.641
330.23	2.656
331.66	2.674
333.1	2.693
334.55	2.708
336.02	2.731
337.5	2.753
338.99	2.78
340.49	2.804
342.01	2.832
343.54	2.855
345.09	2.883
346.64	2.915
348.22	2.941
349.89	2.965
351.94	2.99
353.71	3.014
354.66	3.028
356.3	3.054
357.97	3.084
359.64	3.114
361.34	3.144
363.05	3.176
364.77	3.203
366.51	3.235
368.27	3.265
370.05	3.297
371.84	3.327
373.65	3.359
375.48	3.387
377.33	3.413
379.19	3.44
381.08	3.47
382.98	3.494
384.9	3.517
386.84	3.543
388.8	3.567
390.78	3.59
392.78	3.611
394.8	3.635
396.84	3.654
398.91	3.675
400.99	3.693
403.1	3.712
405.23	3.731
407.38	3.746
409.55	3.763
411.75	3.776
413.97	3.787
416.22	3.795
418.49	3.806
420.78	3.814
423.1	3.816
425.45	3.823
427.82	3.825
430.22	3.823
432.65	3.821
435.1	3.814
437.58	3.81
440.09	3.802
442.63	3.791
445.2	3.778
447.79	3.761
450.42	3.74
453.08	3.72
455.77	3.697
458.5	3.667
461.25	3.637
464.04	3.605
466.87	3.571
469.72	3.532
472.62	3.483
475.55	3.438
478.51	3.387
481.52	3.338
484.56	3.282
487.64	3.223
490.75	3.131
