Uv/Vis Spectrum: 6-hydroxy-4(1H)-pyrimidinone
Formula: C4H4N2O2
CAS: 1193-24-4
Melting point: 230
Instrument: Specord UV-Vis
Origin: INSTITUTE OF ENERGY PROBLEMS OF CHEMICAL PHYSICS, RAS
Wavelength (nm)	Logarithm epsilon
213.185	3.509
213.297	3.509
214.097	3.508
214.897	3.506
215.697	3.504
216.497	3.501
217.297	3.5
218.097	3.499
218.897	3.5
219.697	3.501
220.497	3.503
221.297	3.506
222.097	3.509
222.897	3.512
223.697	3.515
224.497	3.517
225.297	3.518
226.065	3.519
226.865	3.519
227.665	3.522
228.465	3.527
229.265	3.532
230.065	3.538
230.865	3.543
231.665	3.548
232.465	3.553
233.265	3.558
234.065	3.562
234.865	3.567
235.665	3.572
236.347	3.577
237.147	3.587
237.947	3.596
238.747	3.603
239.547	3.605
240.347	3.603
241.147	3.598
241.947	3.592
242.747	3.587
242.901	3.586
243.701	3.582
244.501	3.578
245.301	3.573
246.101	3.569
246.901	3.565
247.701	3.562
248.501	3.56
249.301	3.558
250.101	3.557
250.901	3.558
251.701	3.559
252.501	3.561
253.301	3.565
254.101	3.569
254.866	3.573
255.666	3.578
256.466	3.581
257.266	3.584
258.066	3.587
258.866	3.59
259.666	3.593
260.466	3.597
261.266	3.6
262.066	3.603
262.866	3.606
263.666	3.608
264.466	3.61
265.266	3.61
266.066	3.61
266.866	3.609
267.666	3.606
268.466	3.602
269.266	3.597
270.066	3.591
270.866	3.584
271.666	3.577
272.501	3.566
273.301	3.556
274.101	3.546
274.901	3.536
275.701	3.527
276.501	3.519
277.301	3.511
278.101	3.504
278.901	3.498
279.701	3.493
280.501	3.488
281.298	3.484
282.098	3.478
282.898	3.475
283.698	3.473
284.498	3.468
285.298	3.459
286.098	3.448
286.733	3.44
287.634	3.43
288.434	3.419
289.234	3.407
290.034	3.393
290.834	3.376
291.634	3.355
292.434	3.329
293.234	3.299
294.034	3.262
294.834	3.219
295.634	3.168
296.434	3.109
296.911	3.07
