Uv/Vis Spectrum: Naphthalene, 1,2,3,4-tetrahydro-
Formula: C10H12
CAS: 119-64-2
Melting point: -35.7
Boiling point: 207.6
Instrument: Unicam SP 500, Hilger Ultrascan
Origin: INSTITUTE OF ENERGY PROBLEMS OF CHEMICAL PHYSICS, RAS
Wavelength (nm)	Logarithm epsilon
280.805	1.12191
280.63	1.15799
280.401	1.20663
280.105	1.27039
279.73	1.35183
279.73	1.35183
279.571	1.35286
279.407	1.35389
279.235	1.35492
279.235	1.35492
279.184	1.37088
279.12	1.38853
279.045	1.40788
278.959	1.42894
278.862	1.45168
278.756	1.47613
278.641	1.50227
278.517	1.53011
278.386	1.55964
278.247	1.59086
278.102	1.62378
277.951	1.65839
277.795	1.69469
277.634	1.73269
277.469	1.77237
277.301	1.81374
277.13	1.85681
276.957	1.90156
276.782	1.948
276.607	1.99612
276.431	2.04594
276.431	2.04594
276.346	2.07798
276.261	2.11002
276.173	2.14206
276.084	2.17409
275.994	2.20612
275.901	2.23813
275.806	2.27014
275.709	2.30214
275.609	2.33412
275.507	2.3661
275.401	2.39805
275.293	2.43
275.181	2.46193
275.067	2.49385
274.948	2.52574
274.826	2.55762
274.7	2.58948
274.57	2.62132
274.436	2.65314
274.298	2.68494
274.155	2.71671
274.007	2.74846
274.007	2.74846
273.668	2.75841
273.522	2.76704
273.462	2.77715
273.287	2.75795
273.212	2.75769
273.136	2.75737
273.06	2.75694
273.06	2.75694
272.982	2.75333
272.908	2.74165
272.808	2.71278
272.65	2.65761
272.402	2.56701
272.402	2.56701
272.014	2.48936
271.784	2.44678
271.622	2.42427
271.435	2.4068
271.192	2.40578
271.192	2.40578
271.192	2.40372
271.192	2.40161
271.191	2.39938
271.094	2.40578
270.987	2.40579
270.876	2.40579
270.876	2.40579
270.759	2.40835
270.634	2.41084
270.505	2.41323
270.505	2.41323
270.127	2.43942
269.812	2.46618
269.39	2.50974
268.693	2.58634
268.693	2.58634
268.205	2.62757
267.417	2.67735
266.375	2.71775
266.374	2.71492
266.373	2.71204
266.373	2.70904
266.211	2.707
266.211	2.707
265.117	2.67784
264.729	2.63912
264.335	2.59968
263.236	2.56836
263.236	2.56836
262.276	2.56763
261.637	2.56432
260.847	2.55232
260.847	2.55232
259.88	2.5492
259.289	2.54316
258.568	2.53014
258.568	2.53014
257.876	2.51872
257.351	2.50161
256.876	2.4854
256.876	2.4854
255.403	2.40735
254.73	2.37467
254.568	2.36569
254.568	2.36569
253.959	2.35444
253.349	2.34313
252.735	2.33171
252.735	2.33171
251.747	2.29148
250.947	2.24996
250.25	2.20743
249.573	2.16416
249.573	2.16416
248.825	2.14468
248.105	2.1153
247.603	2.09052
247.603	2.09052
246.671	2.05534
246.185	2.01042
245.275	1.97542
245.275	1.97542
244.804	1.94429
244.294	1.91318
243.75	1.88209
243.175	1.85103
242.575	1.82
241.954	1.78899
241.317	1.75802
240.668	1.72709
240.011	1.6962
239.351	1.66534
238.692	1.63453
238.037	1.60377
237.391	1.57306
236.758	1.54239
236.758	1.54239
236.102	1.52039
235.395	1.49315
234.357	1.47748
234.176	1.47851
233.527	1.48783
233.112	1.50409
232.853	1.51902
232.853	1.51902
232.556	1.55538
232.259	1.59174
231.962	1.62808
231.665	1.6644
231.367	1.7007
231.067	1.73695
231.067	1.73695
230.731	1.80103
230.407	1.86314
230.094	1.92332
229.791	1.98161
229.499	2.03806
229.218	2.0927
228.946	2.14558
228.684	2.19674
228.432	2.24623
228.189	2.29408
227.954	2.34035
227.728	2.38506
227.51	2.42827
227.3	2.47001
227.098	2.51033
226.904	2.54927
226.716	2.58688
226.536	2.62319
226.362	2.65825
226.194	2.69209
226.033	2.72477
225.877	2.75633
225.727	2.7868
225.583	2.81623
225.444	2.84466
225.309	2.87214
225.179	2.89871
225.054	2.9244
224.933	2.94926
224.816	2.97334
224.702	2.99667
224.593	3.01931
224.486	3.04128
224.382	3.06263
224.281	3.08341
224.183	3.10366
224.087	3.12342
223.993	3.14273
223.901	3.16163
223.811	3.18018
223.722	3.1984
223.634	3.21634
223.547	3.23405
223.461	3.25156
223.376	3.26893
223.291	3.28618
223.206	3.30337
223.12	3.32053
223.035	3.33771
222.949	3.35496
222.862	3.3723
222.774	3.38979
222.685	3.40747
222.594	3.42538
222.594	3.42538
222.516	3.43083
222.429	3.43915
222.303	3.45479
222.105	3.48219
221.804	3.5258
221.368	3.59006
220.768	3.67942
220.768	3.67942
220.284	3.72992
219.959	3.76266
219.643	3.79194
219.191	3.83207
219.191	3.83207
219.026	3.8372
218.846	3.84421
218.537	3.85361
218.537	3.85361
217.617	3.86566
216.683	3.87686
215.755	3.88909
215.755	3.88909
215.338	3.90458
214.897	3.91615
214.305	3.92756
214.305	3.92756
212.643	3.92917
209.925	3.93039
207.723	3.93203
207.723	3.93203
206.489	3.94907
205.534	3.97515
204.802	4.00665
204.242	4.0399
203.807	4.07127
203.807	4.07127
203.475	4.10362
203.171	4.13612
202.892	4.16873
202.633	4.20143
202.391	4.2342
202.16	4.26699
201.938	4.2998
201.72	4.33258
201.503	4.36533
201.282	4.398
201.054	4.43057
200.814	4.46302
200.56	4.49531
200.286	4.52743
199.991	4.55934
199.67	4.59102
199.319	4.62244
199.319	4.62244
199.024	4.63663
198.72	4.64927
198.32	4.6609
198.32	4.6609
197.842	4.66218
196.828	4.66138
194.446	4.65783
194.446	4.65783
193.647	4.63841
192.902	4.61341
192.465	4.58526
