Uv/Vis Spectrum: Indole
Formula: C8H7N
CAS: 120-72-9
Melting point: 52.5
Boiling point: 254
Instrument: n.i.g.
Origin: INSTITUTE OF ENERGY PROBLEMS OF CHEMICAL PHYSICS, RAS
Wavelength (nm)	Logarithm epsilon
225.357	4.04529
225.44	4.02213
225.524	3.99895
225.607	3.97575
225.69	3.95253
225.773	3.9293
225.856	3.90605
225.939	3.8828
226.022	3.85953
226.105	3.83627
226.188	3.81299
226.188	3.81299
226.239	3.80455
226.321	3.79057
226.432	3.77192
226.568	3.74944
226.727	3.72399
226.907	3.69642
227.106	3.66759
227.32	3.63834
227.548	3.60954
227.785	3.58203
228.031	3.55666
228.283	3.5343
228.537	3.51579
228.792	3.50199
229.044	3.49374
229.044	3.49374
229.173	3.47295
229.357	3.45191
229.593	3.43067
229.874	3.40928
230.196	3.38777
230.552	3.3662
230.937	3.3446
231.346	3.32302
231.774	3.30151
232.215	3.2801
232.664	3.25884
233.114	3.23778
233.562	3.21695
234.001	3.1964
234.426	3.17618
234.426	3.17618
235.219	3.14947
235.787	3.1312
236.405	3.11291
237.346	3.08618
237.346	3.08618
237.756	3.06548
238.414	3.05054
239.263	3.04066
240.245	3.03511
241.303	3.03319
242.379	3.03417
243.416	3.03735
244.357	3.042
244.357	3.042
245.315	3.0529
246.268	3.06385
247.215	3.07486
248.157	3.08595
249.095	3.09714
250.029	3.10843
250.958	3.11984
251.884	3.13139
252.807	3.14309
253.726	3.15496
254.643	3.16701
255.558	3.17926
256.47	3.19171
257.381	3.20439
258.291	3.21731
258.291	3.21731
259.479	3.23776
260.587	3.25717
261.619	3.27554
262.577	3.29285
263.467	3.30908
264.292	3.32422
265.056	3.33825
265.763	3.35115
266.416	3.36292
267.02	3.37353
267.578	3.38297
267.578	3.38297
268.861	3.39591
269.925	3.40557
270.849	3.41191
271.712	3.41488
272.591	3.41443
273.566	3.41051
274.714	3.40306
276.115	3.39203
276.115	3.39203
277.502	3.39704
278.58	3.40075
279.416	3.40251
280.078	3.40163
280.633	3.39744
281.147	3.38927
281.688	3.37645
282.324	3.3583
283.12	3.33417
283.12	3.33417
283.465	3.31192
283.763	3.2896
284.043	3.26712
284.337	3.2444
284.674	3.22135
285.087	3.19788
285.087	3.19788
285.453	3.19853
285.82	3.199
286.187	3.19937
286.187	3.19937
286.911	3.21678
287.517	3.23232
288.033	3.24473
288.488	3.25276
288.91	3.25514
289.328	3.25061
289.77	3.23789
290.266	3.21575
290.266	3.21575
290.622	3.18849
290.914	3.16585
291.159	3.14644
291.37	3.12889
291.565	3.1118
291.757	3.09379
291.962	3.07348
292.195	3.04947
292.473	3.02039
