Uv/Vis Spectrum: Ethanedithioamide, N,N'-dimethyl-
Formula: C4H8N2S2
CAS: 120-79-6
Melting point: 138
Instrument: Beckman DU
Origin: INSTITUTE OF ENERGY PROBLEMS OF CHEMICAL PHYSICS, RAS
Wavelength (nm)	Logarithm epsilon
214.17	4.14
215	4.113
215.83	4.09
216.5	4.063
217.33	4.039
218.17	4.016
218.83	3.989
219.67	3.966
220.5	3.942
221.5	3.919
222.33	3.896
223.17	3.872
224.17	3.849
225.17	3.829
226.17	3.809
227.17	3.788
228.17	3.768
229.33	3.748
230.33	3.728
231.33	3.708
232.33	3.688
233.33	3.668
234.33	3.648
235.33	3.624
236.33	3.604
237.17	3.581
238.17	3.561
239	3.537
240	3.514
241	3.491
242	3.467
242.83	3.444
243.67	3.42
244.67	3.397
245.5	3.373
246.5	3.35
247.5	3.33
248.33	3.306
249.5	3.286
250.67	3.266
252	3.253
253.5	3.253
254.83	3.263
256.17	3.273
257.33	3.29
258.33	3.31
259.33	3.33
260.33	3.35
261.33	3.373
262.17	3.397
263.17	3.42
264	3.444
264.83	3.467
265.67	3.491
266.5	3.514
267.33	3.541
268.33	3.564
269.17	3.591
270	3.618
270.83	3.645
271.67	3.668
272.5	3.695
273.33	3.718
274	3.745
275	3.768
275.83	3.795
276.67	3.822
277.67	3.842
278.5	3.869
279.5	3.889
280.33	3.912
281.33	3.932
282.33	3.952
283.33	3.973
284.5	3.989
285.67	4.009
286.83	4.026
288	4.046
289.17	4.063
290.5	4.08
291.83	4.096
293.17	4.11
294.5	4.123
295.83	4.133
297.33	4.137
298.67	4.147
300.17	4.147
301.67	4.147
303.17	4.147
304.67	4.14
306.17	4.133
307.5	4.123
309	4.113
310.33	4.1
311.67	4.083
313	4.066
314.17	4.046
315.33	4.026
316.5	4.009
317.5	3.989
318.33	3.966
319.33	3.946
320.33	3.926
321.33	3.902
322.33	3.879
323.17	3.855
324.17	3.835
325.17	3.812
326	3.788
327	3.768
327.83	3.745
328.83	3.721
329.67	3.698
330.67	3.675
331.5	3.648
332.5	3.624
333.33	3.598
334.17	3.574
335.17	3.551
336	3.527
336.83	3.504
337.67	3.481
338.5	3.457
339.33	3.434
340.17	3.41
341.17	3.387
342	3.36
342.83	3.337
343.67	3.31
344.5	3.286
345.33	3.263
346.33	3.24
347.17	3.213
348	3.189
349	3.166
349.83	3.139
350.67	3.116
351.5	3.092
352.33	3.069
353.33	3.045
354.17	3.022
355.17	3.002
356	2.978
357	2.955
357.83	2.932
358.67	2.908
359.5	2.885
360.33	2.861
361.17	2.838
362	2.814
362.83	2.791
363.67	2.768
364.67	2.744
365.5	2.717
366.5	2.694
367.33	2.671
368.17	2.644
369	2.62
