Uv/Vis Spectrum: Catechol
Formula: C6H6O2
CAS: 120-80-9
Melting point: 105
Boiling point: 245
Instrument: n.i.g.
Origin: INSTITUTE OF ENERGY PROBLEMS OF CHEMICAL PHYSICS, RAS
Wavelength (nm)	Logarithm epsilon
223.132	3.49991
223.132	3.49991
223.276	3.48621
223.431	3.47229
223.592	3.45825
224.587	3.39989
224.942	3.37862
225.297	3.35712
225.652	3.33551
226.532	3.26221
226.713	3.2415
226.899	3.22057
227.096	3.19952
227.845	3.12078
228.029	3.10271
228.218	3.08465
228.418	3.06658
229.179	2.99982
229.438	2.98173
229.702	2.96364
229.977	2.94554
230.93	2.87021
231.045	2.85217
231.171	2.83414
231.303	2.81609
232.064	2.74933
232.181	2.73428
232.31	2.71911
232.444	2.70371
233.397	2.62838
233.58	2.60917
233.768	2.58974
233.966	2.57019
234.723	2.49944
234.907	2.48138
235.096	2.46331
235.296	2.44524
236.053	2.37449
236.172	2.3608
236.302	2.34689
236.438	2.33286
237.617	2.25744
238.173	2.23609
238.735	2.2145
239.308	2.19281
240.861	2.16521
241.9	2.16711
242.692	2.17233
243.59	2.18461
245.911	2.22116
246.403	2.23631
246.902	2.25123
247.411	2.26603
249.461	2.33367
249.827	2.34989
250.23	2.36497
250.667	2.38516
252.287	2.44897
252.684	2.4688
253.087	2.48862
253.501	2.50845
254.707	2.58492
255.03	2.59928
255.364	2.61364
255.703	2.62799
257.442	2.71025
257.738	2.72961
258.033	2.74898
258.328	2.76835
259.643	2.82779
260.19	2.8503
260.477	2.86469
260.752	2.88331
261.741	2.94338
262.065	2.95922
262.401	2.97495
262.742	2.99045
264.136	3.05435
264.533	3.07418
264.936	3.09401
265.35	3.11383
266.66	3.16927
267.032	3.18946
267.403	3.20943
267.774	3.22929
269.381	3.28062
269.847	3.29492
270.313	3.30923
270.779	3.32353
273.007	3.36811
273.459	3.36793
273.91	3.36775
274.362	3.36757
275.85	3.40046
276.36	3.40111
276.881	3.40153
277.407	3.40184
277.407	3.40184
277.938	3.38884
278.227	3.37816
278.527	3.36791
279.311	3.32413
279.697	3.30406
280.067	3.29044
280.739	3.27159
280.938	3.26952
281.139	3.26944
281.346	3.26935
281.565	3.26927
281.565	3.26927
281.628	3.27474
281.702	3.2802
281.782	3.28567
282.656	3.33129
282.939	3.33815
283.229	3.34491
283.529	3.35143
283.529	3.35143
284.692	3.34127
285.462	3.32172
285.954	3.2925
286.531	3.2423
286.81	3.21956
287.094	3.19659
287.39	3.17351
287.693	3.1509
287.79	3.14736
287.86	3.11735
287.887	3.14383
287.946	3.10168
287.984	3.14029
288.037	3.08579
288.139	3.06977
288.576	3.00514
288.682	2.97897
288.8	2.95257
288.923	2.92606
289.069	2.87203
289.17	2.84036
289.282	2.80847
289.4	2.77646
289.45	2.62704
289.478	2.65486
289.506	2.68246
289.534	2.70995
289.819	2.56893
289.857	2.54943
289.906	2.52992
289.961	2.51041
290.12	2.44439
290.156	2.42237
290.202	2.40024
290.254	2.37788
290.375	2.29888
290.505	2.22838
290.51	2.29223
290.544	2.27395
290.664	2.16186
290.698	2.13836
290.744	2.11486
290.794	2.09135
