Uv/Vis Spectrum: 2,2'-dithiobis-benzothiazole
Formula: C14H8N2S4
CAS: 120-78-5
Melting point: 179-180
Instrument: SF-16
Origin: INSTITUTE OF ENERGY PROBLEMS OF CHEMICAL PHYSICS, RAS
Wavelength (nm)	Logarithm epsilon
226.662	4.376
226.963	4.377
227.852	4.376
228.852	4.376
229.852	4.377
230.852	4.376
231.852	4.371
232.852	4.36
233.852	4.341
234.852	4.313
235.852	4.276
236.852	4.229
237.852	4.174
238.852	4.111
239.443	4.068
239.991	4.032
240.991	3.971
241.991	3.916
242.991	3.865
243.991	3.819
244.991	3.775
245.991	3.733
246.991	3.693
247.991	3.654
248.991	3.618
249.991	3.583
250.991	3.55
251.991	3.519
252.991	3.491
253.991	3.465
254.991	3.444
255.991	3.426
256.991	3.411
257.991	3.401
258.991	3.395
259.991	3.393
260.991	3.394
261.991	3.398
262.991	3.405
263.991	3.413
264.991	3.421
266.105	3.429
267.105	3.439
268.105	3.448
269.105	3.457
270.105	3.464
271.105	3.47
272.105	3.475
273.105	3.479
274.105	3.481
275.105	3.482
276.105	3.482
277.105	3.48
278.105	3.477
279.105	3.473
280.105	3.468
281.105	3.461
282.105	3.454
283.105	3.445
284.105	3.436
285.105	3.426
286.105	3.415
287.105	3.404
288.105	3.392
289.105	3.38
290.105	3.367
291.105	3.354
292.105	3.341
293.105	3.328
294.105	3.315
295.105	3.302
296.105	3.289
297.105	3.276
298.105	3.264
299.105	3.252
300.105	3.24
301.105	3.228
302.105	3.217
303.105	3.206
304.105	3.195
305.105	3.185
306.105	3.175
307.105	3.165
308.105	3.156
309.105	3.146
310.105	3.137
311.105	3.128
312.105	3.119
313.105	3.111
314.105	3.102
315.105	3.093
316.105	3.083
317.105	3.074
318.105	3.065
319.105	3.055
320.105	3.045
321.105	3.034
322.105	3.023
323.105	3.012
324.105	3
325.105	2.988
326.105	2.976
327.105	2.963
328.105	2.95
329.105	2.937
330.105	2.924
331.105	2.911
