Uv/Vis Spectrum: Benzenamine, 2-methoxy-5-methyl-
Formula: C8H11NO
CAS: 120-71-8
Melting point: 53
Boiling point: 235
Instrument: unknown
Origin: INSTITUTE OF ENERGY PROBLEMS OF CHEMICAL PHYSICS, RAS
Wavelength (nm)	Logarithm epsilon
216.54	4.338
216.71	4.323
216.88	4.311
217.21	4.261
217.55	4.217
217.89	4.184
218.23	4.155
218.56	4.131
218.9	4.096
219.24	4.066
219.58	4.034
219.91	4.019
220.25	3.995
220.59	3.98
220.93	3.963
221.26	3.945
221.6	3.93
221.94	3.915
222.28	3.904
222.61	3.895
222.95	3.886
223.29	3.877
223.63	3.874
223.96	3.865
224.3	3.859
224.64	3.859
224.98	3.853
225.31	3.85
225.65	3.848
225.99	3.845
226.33	3.845
226.66	3.842
227	3.839
227.34	3.839
227.68	3.839
228.01	3.836
228.35	3.836
228.69	3.839
229.03	3.839
229.36	3.839
229.7	3.842
230.04	3.845
230.38	3.845
230.71	3.848
231.05	3.848
231.39	3.853
231.73	3.859
232.06	3.862
232.4	3.862
232.74	3.871
233.08	3.874
233.41	3.877
233.75	3.883
234.09	3.889
234.43	3.895
234.77	3.901
235.1	3.904
235.44	3.91
235.78	3.91
236.12	3.912
236.45	3.915
236.79	3.918
237.13	3.921
237.47	3.924
237.8	3.927
238.14	3.93
238.48	3.93
238.82	3.933
239.15	3.933
239.49	3.933
239.83	3.933
240.17	3.933
240.51	3.931
240.85	3.927
241.12	3.922
241.46	3.917
241.8	3.909
242.3	3.897
242.83	3.884
243.2	3.874
243.48	3.869
243.88	3.856
244.22	3.845
244.55	3.833
244.89	3.821
245.23	3.812
245.57	3.797
245.9	3.783
246.24	3.768
246.58	3.744
246.92	3.729
247.25	3.709
247.59	3.688
247.93	3.664
248.27	3.641
248.6	3.611
248.94	3.582
249.28	3.555
249.62	3.526
249.95	3.478
250.29	3.443
250.63	3.393
250.97	3.322
251.1	3.254
251.3	3.177
251.42	3.074
251.64	2.974
251.81	2.867
251.98	2.838
252.15	2.82
252.32	2.805
252.49	2.794
252.65	2.779
252.82	2.764
252.99	2.752
253.16	2.743
253.33	2.737
253.5	2.729
253.67	2.726
253.84	2.714
254	2.714
254.17	2.708
254.34	2.702
254.51	2.696
254.68	2.693
254.85	2.684
255.02	2.681
255.19	2.675
255.35	2.67
255.52	2.667
255.69	2.658
255.86	2.655
256.03	2.649
256.2	2.643
256.37	2.637
256.54	2.628
256.7	2.622
256.87	2.613
257.04	2.608
257.21	2.599
257.38	2.59
257.55	2.581
257.72	2.572
257.89	2.56
258.05	2.554
258.22	2.54
258.39	2.528
258.56	2.516
258.73	2.501
258.9	2.489
259.07	2.475
259.24	2.46
259.4	2.448
259.57	2.43
259.74	2.395
259.91	2.371
260.08	2.362
260.25	2.342
260.42	2.33
260.59	2.315
260.75	2.306
260.92	2.3
261.09	2.292
261.26	2.286
261.43	2.274
261.6	2.271
261.74	2.27
261.94	2.268
262.1	2.268
262.27	2.268
262.44	2.268
262.61	2.268
262.78	2.268
262.95	2.268
263.14	2.269
263.3	2.269
263.47	2.27
263.62	2.271
263.82	2.273
263.96	2.274
264.15	2.276
264.34	2.278
264.58	2.28
264.73	2.281
264.89	2.283
265.02	2.284
265.14	2.286
265.31	2.289
265.48	2.292
265.65	2.295
265.82	2.298
265.99	2.3
266.15	2.303
266.32	2.306
266.54	2.312
266.67	2.315
266.79	2.319
267	2.324
267.2	2.329
267.34	2.333
267.5	2.339
267.67	2.345
267.84	2.351
268.01	2.36
268.18	2.362
268.35	2.371
268.52	2.383
268.69	2.392
269.03	2.41
269.36	2.427
269.53	2.445
269.7	2.457
269.87	2.472
270.04	2.484
270.21	2.498
270.37	2.516
270.54	2.534
270.71	2.548
270.88	2.56
271.05	2.575
271.22	2.587
271.39	2.599
271.56	2.61
271.72	2.619
271.89	2.634
272.06	2.646
272.23	2.658
272.4	2.667
272.57	2.678
272.74	2.687
272.91	2.699
273.07	2.708
273.24	2.717
273.41	2.726
273.58	2.737
273.75	2.746
273.92	2.758
274.09	2.77
274.46	2.8
275	2.836
275.18	2.847
275.39	2.866
275.63	2.884
275.94	2.909
276.28	2.929
276.62	2.95
276.96	2.974
277.29	2.991
277.63	3.012
277.97	3.027
278.31	3.044
278.64	3.065
278.98	3.08
279.32	3.095
279.66	3.115
279.99	3.133
280.33	3.142
280.67	3.154
281.01	3.168
281.34	3.186
281.68	3.201
282.02	3.216
282.36	3.225
282.73	3.235
283.03	3.242
283.37	3.254
283.71	3.266
284.04	3.278
284.38	3.29
284.72	3.304
285.06	3.316
285.39	3.325
285.73	3.337
286.07	3.349
286.41	3.36
286.74	3.369
287.08	3.381
287.42	3.39
287.76	3.402
288.09	3.411
288.41	3.423
288.77	3.431
289.11	3.44
289.43	3.451
289.78	3.455
290.12	3.461
290.46	3.47
290.79	3.478
291.13	3.484
291.47	3.487
291.81	3.493
292.14	3.493
292.48	3.496
292.82	3.496
293.16	3.496
293.49	3.496
293.83	3.496
294.17	3.493
294.51	3.487
294.84	3.487
295.18	3.481
295.52	3.473
295.86	3.461
296.19	3.455
296.53	3.446
296.87	3.437
297.21	3.428
297.54	3.416
297.88	3.405
298.22	3.393
298.56	3.378
298.89	3.366
299.23	3.349
299.57	3.337
299.87	3.321
300.24	3.298
300.57	3.278
300.91	3.252
301.22	3.23
301.5	3.211
301.93	3.174
302.27	3.127
302.61	3.083
302.94	3.042
303.28	3.009
303.62	2.971
303.96	2.929
304.3	2.885
304.63	2.847
304.97	2.814
305.31	2.776
305.65	2.711
305.98	2.664
306.32	2.619
306.66	2.563
307	2.519
307.33	2.469
307.67	2.424
308.01	2.38
308.35	2.336
308.68	2.295
