Uv/Vis Spectrum: 1,3-Benzodioxole, 5-(1-propenyl)-
Formula: C10H10O2
CAS: 120-58-1
Melting point: 6
Boiling point: 253
Instrument: Beckman Model DU
Origin: INSTITUTE OF ENERGY PROBLEMS OF CHEMICAL PHYSICS, RAS
Wavelength (nm)	Logarithm epsilon
205.63	4.268
206.82	4.288
208.01	4.302
209.21	4.312
210.4	4.315
211.59	4.315
212.79	4.312
213.98	4.302
215.17	4.291
216.37	4.275
217.56	4.251
218.75	4.231
219.95	4.2
221.14	4.17
222.33	4.133
223.53	4.099
224.72	4.065
225.91	4.025
227.11	3.991
228.3	3.957
229.49	3.924
230.69	3.89
231.88	3.856
233.07	3.822
234.27	3.782
235.46	3.748
236.65	3.725
237.85	3.698
239.04	3.681
240.23	3.674
241.42	3.677
242.62	3.681
243.81	3.708
245	3.731
246.2	3.762
247.39	3.795
248.58	3.822
249.78	3.846
250.97	3.88
252.16	3.91
253.36	3.941
254.55	3.964
255.74	3.995
256.94	4.022
258.13	4.038
259.32	4.045
260.52	4.045
261.71	4.045
262.9	4.042
264.1	4.038
265.29	4.035
266.48	4.025
267.68	4.008
268.87	3.988
270.06	3.954
271.26	3.91
272.45	3.856
273.64	3.799
274.84	3.742
276.03	3.691
277.22	3.65
278.42	3.623
279.61	3.607
280.8	3.603
282	3.59
283.19	3.59
284.38	3.59
285.58	3.596
286.77	3.603
287.96	3.607
289.16	3.617
290.35	3.62
291.54	3.634
292.74	3.637
293.93	3.647
295.12	3.654
296.32	3.667
297.51	3.677
298.7	3.684
299.9	3.694
301.09	3.698
302.28	3.701
303.48	3.701
304.67	3.701
305.86	3.698
307.06	3.694
308.25	3.684
309.44	3.671
310.64	3.657
311.83	3.64
313.02	3.617
314.22	3.596
315.41	3.563
316.6	3.529
317.8	3.485
318.99	3.428
320.18	3.364
321.38	3.293
322.57	3.208
323.76	3.104
324.96	3.06
326.15	2.986
327.34	2.861
328.54	2.702
329.73	2.53
330.92	2.338
332.12	2.186
333.31	2.034
334.5	1.913
335.7	1.795
336.89	1.677
338.08	1.575
339.28	1.481
340.47	1.376
341.66	1.282
342.86	1.181
344.05	1.063
345.24	0.961
346.44	0.864
347.63	0.752
348.82	0.654
350.02	0.573
351.21	0.489
352.4	0.395
353.6	0.324
354.79	0.249
355.98	0.182
357.18	0.115
358.37	0.044
359.56	-0.017
360.76	-0.081
361.95	-0.145
363.14	-0.196
364.34	-0.247
365.53	-0.307
366.72	-0.358
367.92	-0.405
369.11	-0.452
370.3	-0.493
371.5	-0.537
372.69	-0.587
373.88	-0.631
375.08	-0.668
376.27	-0.705
377.46	-0.742
378.66	-0.783
379.85	-0.817
381.04	-0.847
