Uv/Vis Spectrum: Piperonal
Formula: C8H6O3
CAS: 120-57-0
Melting point: 37
Instrument: Unicam SP 800
Origin: INSTITUTE OF ENERGY PROBLEMS OF CHEMICAL PHYSICS, RAS
Wavelength (nm)	Logarithm epsilon
212.23	3.631
212.74	3.604
213.42	3.577
214.77	3.56
216.13	3.577
216.81	3.604
217.32	3.631
218.17	3.658
218.68	3.689
219.19	3.716
219.87	3.743
220.55	3.77
221.06	3.797
221.91	3.825
222.75	3.852
223.43	3.879
224.28	3.903
225.13	3.93
226.15	3.954
227	3.977
228.19	3.994
229.21	4.015
230.57	4.032
231.92	4.042
233.45	4.045
234.98	4.042
236.34	4.028
237.53	4.008
238.38	3.981
238.72	3.95
239.23	3.923
239.74	3.896
240.25	3.869
240.42	3.838
240.92	3.808
241.09	3.777
241.26	3.746
241.43	3.716
241.6	3.685
241.94	3.655
242.11	3.624
242.28	3.593
242.45	3.563
242.79	3.532
242.96	3.502
243.13	3.471
243.47	3.441
243.64	3.41
243.81	3.379
244.15	3.349
244.32	3.318
244.49	3.288
244.83	3.257
245	3.227
245.34	3.196
245.68	3.165
246.02	3.135
246.19	3.104
246.53	3.074
246.87	3.043
247.38	3.016
248.06	2.989
249.58	2.999
250.43	3.026
250.94	3.053
251.45	3.084
251.96	3.111
252.64	3.138
253.15	3.169
253.66	3.199
254.34	3.227
254.85	3.257
255.36	3.284
256.04	3.312
256.72	3.339
257.23	3.369
257.91	3.396
258.58	3.424
259.09	3.451
259.77	3.478
260.45	3.505
261.13	3.532
261.98	3.56
262.66	3.587
263.34	3.614
264.19	3.638
264.87	3.665
265.89	3.685
266.91	3.706
267.58	3.733
268.6	3.757
269.79	3.777
271.15	3.791
272.68	3.797
274.21	3.801
275.74	3.794
276.92	3.777
278.28	3.76
279.64	3.746
280.83	3.726
281.85	3.702
282.87	3.682
283.72	3.658
284.74	3.638
285.92	3.617
287.11	3.6
288.64	3.593
290.17	3.59
291.7	3.593
293.06	3.61
294.42	3.627
295.43	3.648
296.45	3.672
297.64	3.692
298.66	3.712
299.68	3.736
300.87	3.757
301.72	3.784
302.74	3.804
304.09	3.818
305.28	3.838
306.47	3.858
307.83	3.872
308.85	3.892
310.21	3.909
311.57	3.92
313.09	3.923
314.62	3.913
316.15	3.906
317.51	3.889
318.7	3.869
319.89	3.852
320.74	3.828
322.09	3.811
323.28	3.791
323.79	3.763
324.81	3.743
325.66	3.719
326.34	3.692
327.36	3.672
328.04	3.644
328.72	3.617
329.57	3.593
330.08	3.566
330.92	3.539
331.6	3.512
332.11	3.485
332.79	3.458
333.3	3.43
333.64	3.4
334.32	3.373
334.83	3.345
335.17	3.315
335.51	3.284
336.02	3.257
336.53	3.23
336.87	3.199
337.38	3.172
337.89	3.145
338.4	3.114
338.74	3.084
339.25	3.057
339.75	3.03
340.09	2.999
340.6	2.972
341.11	2.945
341.45	2.914
341.96	2.887
342.47	2.86
342.81	2.829
343.32	2.802
343.83	2.771
344	2.741
344.34	2.71
344.68	2.68
345.19	2.649
345.53	2.618
345.7	2.588
346.21	2.557
346.55	2.527
346.89	2.496
347.4	2.469
347.91	2.438
348.25	2.408
348.75	2.381
349.26	2.35
349.6	2.319
350.62	2.265
350.96	2.235
351.47	2.207
351.98	2.18
352.49	2.153
353	2.126
353.34	2.095
354.02	2.068
354.53	2.041
355.04	2.014
355.55	1.987
356.23	1.959
356.74	1.929
357.25	1.902
357.92	1.874
358.43	1.847
359.11	1.82
359.79	1.793
360.47	1.766
361.15	1.739
361.83	1.711
362.51	1.684
363.02	1.657
363.7	1.63
364.21	1.603
364.72	1.575
365.4	1.548
365.91	1.521
366.58	1.494
367.09	1.463
367.6	1.436
368.11	1.406
368.62	1.375
369.13	1.344
369.64	1.314
370.15	1.287
370.49	1.256
370.83	1.226
371.17	1.195
371.68	1.168
372.02	1.137
