Uv/Vis Spectrum: Anthracene
Formula: C14H10
CAS: 120-12-7
Melting point: 215
Boiling point: 339.9
Instrument: Beckman DU
Origin: INSTITUTE OF ENERGY PROBLEMS OF CHEMICAL PHYSICS, RAS
Wavelength (nm)	Logarithm epsilon
370.461	2.05903
370.247	2.10573
370.098	2.12958
370.098	2.12958
369.723	2.24072
369.348	2.32949
368.974	2.4033
368.974	2.4033
368.747	2.42485
368.38	2.464
367.816	2.51387
367.816	2.51387
367.535	2.5324
367.25	2.55028
366.962	2.56764
366.962	2.56764
366.736	2.59532
366.509	2.62152
366.276	2.64632
366.276	2.64632
366.163	2.66393
366.065	2.67929
365.968	2.69553
365.854	2.71536
365.708	2.74091
365.514	2.77365
365.257	2.8142
364.922	2.86236
364.922	2.86236
364.67	2.91422
364.449	2.95536
364.255	2.98842
364.087	3.01518
363.942	3.0369
363.819	3.05448
363.716	3.06863
363.63	3.07991
363.56	3.08876
363.504	3.09556
363.46	3.10064
363.426	3.1043
363.399	3.1068
363.379	3.10839
363.363	3.10932
363.349	3.10981
363.335	3.11011
363.335	3.11011
363.242	3.11011
363.144	3.11011
363.044	3.11011
363.044	3.11011
363.003	3.1092
362.961	3.10829
362.913	3.10738
362.913	3.10738
362.844	3.09604
362.774	3.0844
362.704	3.07243
362.635	3.06013
362.565	3.04747
362.495	3.03443
362.425	3.02098
362.356	3.0071
362.286	2.99277
362.216	2.97795
362.146	2.9626
362.076	2.94669
362.006	2.93017
361.936	2.91301
361.865	2.89513
361.795	2.87649
361.725	2.85701
361.654	2.83662
361.583	2.81522
361.583	2.81522
361.462	2.78508
361.338	2.75267
361.212	2.71758
361.086	2.67931
361.086	2.67931
361.006	2.66968
360.924	2.65966
360.838	2.64932
360.838	2.64932
360.72	2.64726
360.635	2.64687
360.51	2.64782
360.51	2.64782
360.402	2.6539
360.293	2.66005
360.184	2.6662
360.184	2.6662
359.858	2.70933
359.53	2.74856
359.198	2.78454
359.198	2.78454
358.982	2.80094
358.766	2.81675
358.55	2.832
358.55	2.832
358.432	2.832
358.312	2.832
358.188	2.832
358.188	2.832
358.091	2.82307
357.993	2.81394
357.895	2.80462
357.895	2.80462
357.704	2.76283
357.573	2.73353
357.443	2.70575
357.252	2.66476
357.252	2.66476
356.789	2.59733
356.537	2.55942
356.282	2.52447
356.282	2.52447
356.125	2.51387
355.963	2.503
355.799	2.49186
355.799	2.49186
355.548	2.4913
355.298	2.49062
355.048	2.4897
355.048	2.4897
354.542	2.50812
354.18	2.5229
353.651	2.54636
353.651	2.54636
353.072	2.58171
352.458	2.61811
351.802	2.65391
351.097	2.68796
351.097	2.68796
350.985	2.69721
350.905	2.70188
350.787	2.70606
350.787	2.70606
350.422	2.73887
350.057	2.76939
349.693	2.79793
349.33	2.82475
348.968	2.85005
348.968	2.85005
348.602	2.88071
348.373	2.89974
348.182	2.91657
347.932	2.93902
347.932	2.93902
347.817	2.94142
347.748	2.94389
347.664	2.94852
347.664	2.94852
347.222	2.95635
347.003	2.96068
346.819	2.96529
346.819	2.96529
346.774	2.97062
346.733	2.9759
346.689	2.98241
346.634	2.99131
346.561	3.00367
346.464	3.02034
346.334	3.04194
346.165	3.06877
345.95	3.10082
345.95	3.10082
345.877	3.10188
345.802	3.10297
345.723	3.10411
345.723	3.10411
345.622	3.10411
345.522	3.10411
345.422	3.10411
345.422	3.10411
345.282	3.10249
345.193	3.10095
345.077	3.09816
345.077	3.09816
344.778	3.08241
344.478	3.06606
344.177	3.04907
343.874	3.03139
343.874	3.03139
343.64	3.01316
343.406	2.99413
343.173	2.97423
343.173	2.97423
343.005	2.97049
342.877	2.96836
342.68	2.96601
342.68	2.96601
342.313	2.9651
341.945	2.96415
341.574	2.96311
341.574	2.96311
341.405	2.9611
341.234	2.95904
341.059	2.95689
341.059	2.95689
340.62	2.93467
340.316	2.91681
339.884	2.88751
339.884	2.88751
339.459	2.8498
339.231	2.83004
339.006	2.81317
339.006	2.81317
338.589	2.79205
338.363	2.78116
338.133	2.77175
338.133	2.77175
338.017	2.76912
337.897	2.76634
337.776	2.76349
337.776	2.76349
337.287	2.76031
336.796	2.75711
336.304	2.75389
336.304	2.75389
335.748	2.74681
335.387	2.74292
334.914	2.73893
334.914	2.73893
334.502	2.74103
334.29	2.74299
334.095	2.74647
334.095	2.74647
333.857	2.75761
333.501	2.77698
332.723	2.81853
332.723	2.81853
332.308	2.83495
331.89	2.85082
331.471	2.86624
331.471	2.86624
330.919	2.89167
330.529	2.90859
330.193	2.92215
329.804	2.93674
329.259	2.95616
329.259	2.95616
329.168	2.95873
329.077	2.96129
328.986	2.96384
328.986	2.96384
328.805	2.96403
328.621	2.96426
328.435	2.96456
328.435	2.96456
328.344	2.96183
328.254	2.95904
328.163	2.95616
328.163	2.95616
327.762	2.93198
327.48	2.91617
327.076	2.89543
327.076	2.89543
326.896	2.8896
326.717	2.88359
326.538	2.87744
326.538	2.87744
326.222	2.87226
325.906	2.86691
325.591	2.86144
325.591	2.86144
325.356	2.85583
325.123	2.85004
324.889	2.84411
324.889	2.84411
324.694	2.83615
324.495	2.82798
324.295	2.81954
324.295	2.81954
323.927	2.7951
323.748	2.78243
323.631	2.77652
323.631	2.77652
323.453	2.75841
323.323	2.74694
323.129	2.73249
323.129	2.73249
322.93	2.72299
322.759	2.71614
322.47	2.70606
322.47	2.70606
322.097	2.69688
321.631	2.68337
320.673	2.65267
320.673	2.65267
320.35	2.64658
320.024	2.64023
319.697	2.6337
319.697	2.6337
319.454	2.63164
319.207	2.6294
318.959	2.62706
318.959	2.62706
318.572	2.62706
318.185	2.62706
317.8	2.62706
317.8	2.62706
317.249	2.6327
316.656	2.64098
315.515	2.65857
315.515	2.65857
314.776	2.66293
314.297	2.66453
313.668	2.66476
313.668	2.66476
313.481	2.6633
313.293	2.66175
313.106	2.66004
313.106	2.66004
312.858	2.6507
312.46	2.63588
311.782	2.60691
311.782	2.60691
310.885	2.57253
310.365	2.5505
310.066	2.5387
310.066	2.5387
309.928	2.53104
309.738	2.52101
309.459	2.503
309.459	2.503
308.974	2.47515
308.677	2.45862
308.31	2.43995
308.31	2.43995
308.093	2.43177
307.829	2.41738
307.472	2.39733
307.472	2.39733
306.649	2.37165
305.95	2.35103
305.333	2.32868
305.333	2.32868
304.568	2.32688
303.806	2.32472
303.049	2.32237
303.049	2.32237
301.454	2.29307
300.822	2.27897
300.598	2.2692
