Uv/Vis Spectrum: Benzene, 1,2,4-trichloro-
Formula: C6H3Cl3
CAS: 120-82-1
Melting point: 17
Boiling point: 213.5
Instrument: Unicam Spectrophotometer
Origin: INSTITUTE OF ENERGY PROBLEMS OF CHEMICAL PHYSICS, RAS
Wavelength (nm)	Logarithm epsilon
232.81	4.3
233.24	4.278
233.37	4.271
233.52	4.264
233.8	4.251
234.07	4.238
234.38	4.219
234.66	4.203
234.94	4.187
235.23	4.174
235.51	4.159
235.8	4.14
236.08	4.122
236.36	4.098
236.62	4.078
236.94	4.05
237.23	4.025
237.5	3.999
237.78	3.974
238.07	3.948
238.35	3.922
238.63	3.892
238.92	3.862
239.2	3.832
239.55	3.792
239.77	3.765
240.06	3.736
240.33	3.703
240.62	3.671
240.91	3.643
241.19	3.616
241.48	3.587
241.75	3.563
242.05	3.538
242.33	3.512
242.61	3.484
242.9	3.458
243.19	3.433
243.47	3.411
243.75	3.386
244.03	3.359
244.48	3.329
244.89	3.299
245.09	3.285
245.44	3.268
245.74	3.255
246.12	3.238
246.67	3.218
247.12	3.209
247.44	3.207
247.73	3.207
248.01	3.207
248.32	3.208
248.6	3.21
248.93	3.216
249.15	3.222
249.34	3.229
249.49	3.235
249.7	3.243
249.88	3.251
250.11	3.26
250.31	3.269
250.57	3.278
250.85	3.286
251.04	3.29
251.25	3.295
251.8	3.308
252.27	3.318
252.54	3.322
252.84	3.324
253.16	3.322
253.4	3.321
253.72	3.319
253.98	3.318
254.26	3.318
254.6	3.319
254.94	3.322
255.25	3.326
255.51	3.332
255.75	3.339
255.97	3.347
256.25	3.359
256.43	3.369
256.69	3.383
256.92	3.394
257.16	3.404
257.39	3.411
257.69	3.42
257.95	3.426
258.25	3.436
258.52	3.444
258.9	3.454
259.38	3.462
259.6	3.464
259.94	3.467
260.26	3.469
260.51	3.471
260.93	3.472
261.36	3.475
261.65	3.479
261.93	3.484
262.22	3.488
262.5	3.496
262.78	3.5
263.07	3.504
263.55	3.514
263.92	3.524
264.26	3.536
264.54	3.545
264.77	3.553
265.06	3.56
265.31	3.571
265.62	3.584
265.91	3.594
266.19	3.603
266.48	3.61
266.76	3.613
267.05	3.616
267.33	3.616
267.61	3.616
267.9	3.616
268.32	3.612
268.75	3.603
269.03	3.6
269.51	3.6
269.89	3.603
270.17	3.606
270.53	3.612
270.81	3.618
271.09	3.626
271.58	3.642
271.93	3.66
272.16	3.676
272.44	3.715
272.59	3.732
272.87	3.754
273.12	3.768
273.36	3.779
273.57	3.784
273.86	3.787
274.15	3.78
274.43	3.757
274.72	3.736
275	3.71
275.25	3.694
275.57	3.671
275.78	3.659
276.14	3.637
276.41	3.624
276.99	3.603
277.27	3.597
277.56	3.59
278.02	3.588
278.41	3.59
278.69	3.594
279	3.598
279.26	3.603
279.56	3.612
279.83	3.622
280.12	3.635
280.4	3.651
280.68	3.671
280.97	3.694
281.25	3.712
281.53	3.727
281.77	3.741
282.1	3.757
282.39	3.768
282.67	3.77
282.95	3.761
283.17	3.747
283.31	3.728
283.52	3.689
283.63	3.663
283.7	3.634
283.8	3.606
283.91	3.581
284.01	3.549
284.09	3.52
284.38	3.462
284.61	3.435
284.94	3.396
285.23	3.37
285.45	3.352
285.73	3.334
286.08	3.312
286.36	3.293
286.92	3.252
287.22	3.23
287.5	3.207
288.07	3.174
288.35	3.157
288.64	3.139
288.88	3.121
289.3	3.093
289.77	3.069
290.06	3.058
