Uv/Vis Spectrum: Cyclopentanone
Formula: C5H8O
CAS: 120-92-3
Melting point: -51.3
Boiling point: 130.5
Instrument: n.i.g.
Origin: INSTITUTE OF ENERGY PROBLEMS OF CHEMICAL PHYSICS, RAS
Wavelength (nm)	Logarithm epsilon
330.951	0.042418
330.52	0.072801
330.111	0.099439
329.733	0.12496
329.397	0.151921
329.397	0.151921
329.221	0.155306
329.039	0.158724
328.841	0.162116
328.841	0.162116
328.667	0.182186
328.494	0.202461
328.321	0.222846
327.597	0.323912
327.597	0.323912
327.597	0.300443
327.597	0.27676
327.597	0.252974
327.401	0.327706
327.21	0.337479
326.939	0.360518
326.502	0.404098
325.817	0.475511
325.817	0.475511
325.363	0.504294
324.843	0.553155
324.393	0.581927
324.393	0.581927
323.967	0.631839
323.606	0.671811
323.295	0.703867
323.023	0.729999
322.777	0.752233
322.546	0.772571
322.316	0.793036
322.076	0.815624
321.815	0.84236
321.815	0.84236
321.312	0.869214
321.046	0.880299
320.788	0.885118
320.788	0.885118
320.139	0.876033
319.529	0.862304
318.885	0.849653
318.885	0.849653
318.163	0.851882
317.818	0.853899
317.553	0.857423
317.553	0.857423
316.901	0.884127
316.357	0.90668
315.785	0.934978
315.051	0.978897
315.051	0.978897
314.64	0.992611
314.349	1.00632
314.067	1.01679
314.067	1.01679
313.86	1.03267
313.611	1.04368
313.404	1.0547
313.404	1.0547
312.715	1.07863
311.751	1.1166
310.656	1.15576
310.656	1.15576
310.162	1.15576
309.678	1.15576
309.208	1.15576
309.208	1.15576
308.626	1.14653
308.047	1.1373
307.47	1.12807
307.47	1.12807
306.783	1.12902
306.112	1.12986
305.451	1.1305
305.451	1.1305
305.072	1.13632
304.706	1.14216
304.348	1.14799
304.348	1.14799
303.744	1.17016
303.313	1.18671
302.811	1.19852
302.811	1.19852
302.459	1.21795
302.107	1.23739
301.756	1.25683
301.756	1.25683
301.281	1.26397
300.814	1.2777
299.956	1.30979
299.956	1.30979
299.647	1.31256
299.352	1.31512
299.064	1.31756
299.064	1.31756
298.5	1.31416
297.951	1.31076
297.409	1.30736
297.409	1.30736
296.569	1.28549
295.746	1.26363
294.934	1.24176
294.934	1.24176
294.599	1.24176
294.266	1.24176
293.933	1.24176
293.933	1.24176
292.884	1.26458
291.842	1.28729
290.807	1.30979
290.807	1.30979
290.186	1.30883
289.573	1.30799
288.974	1.30736
288.974	1.30736
288.304	1.30092
287.484	1.28983
285.822	1.2646
285.822	1.2646
285.639	1.25537
285.456	1.24614
285.273	1.2369
285.273	1.2369
284.007	1.20631
282.764	1.17582
281.538	1.14556
281.538	1.14556
281.233	1.14313
280.929	1.1407
280.625	1.13827
280.625	1.13827
280.425	1.14225
280.321	1.14741
280.222	1.15819
280.222	1.15819
279.645	1.16339
279.075	1.16838
278.519	1.17325
278.519	1.17325
277.784	1.16021
277.387	1.15051
276.985	1.13584
276.985	1.13584
276.275	1.09175
275.791	1.06235
275.346	1.027
275.346	1.027
274.755	1.00055
274.402	0.981542
274.088	0.968693
274.088	0.968693
273.494	0.968693
272.913	0.968693
272.34	0.968693
272.34	0.968693
272.086	0.977294
271.842	0.985682
271.604	0.993961
271.604	0.993961
271.021	0.994915
270.451	0.995758
269.888	0.996389
269.888	0.996389
269.475	0.979403
269.074	0.962521
268.679	0.945857
268.679	0.945857
268.5	0.933244
267.896	0.90551
266.771	0.847221
266.771	0.847221
266.003	0.819991
265.515	0.806261
264.889	0.794258
264.889	0.794258
264.536	0.796061
264.195	0.797641
263.858	0.79912
263.858	0.79912
263.702	0.810273
263.546	0.821324
263.39	0.832158
263.39	0.832158
263.036	0.832158
262.687	0.832158
262.349	0.832158
262.349	0.832158
261.517	0.811843
260.924	0.793036
260.638	0.7792
260.638	0.7792
260.038	0.760754
259.448	0.739904
258.67	0.711487
257.516	0.670357
257.516	0.670357
257.14	0.670357
256.775	0.670357
256.415	0.670357
256.415	0.670357
256.267	0.678964
256.12	0.687342
255.973	0.695622
255.973	0.695622
255.721	0.695622
255.47	0.695622
255.219	0.695622
255.219	0.695622
253.933	0.650803
253.031	0.619479
252.381	0.597531
251.85	0.580811
251.312	0.565163
250.643	0.546456
250.643	0.546456
250.528	0.537857
250.423	0.529469
250.321	0.52119
250.321	0.52119
250.181	0.52119
250.04	0.52119
249.9	0.52119
249.9	0.52119
249.787	0.518251
249.655	0.514388
249.468	0.508691
249.19	0.500223
248.787	0.488071
248.225	0.471292
247.471	0.449
246.494	0.420236
245.265	0.384102
243.758	0.33967
241.949	0.28603
241.949	0.28603
241.781	0.284228
241.617	0.282645
241.462	0.28117
241.462	0.28117
241.393	0.274989
241.332	0.269022
241.275	0.263186
241.275	0.263186
241.108	0.262237
240.945	0.261382
240.79	0.260763
240.79	0.260763
240.754	0.256405
240.721	0.252149
240.697	0.24812
240.697	0.24812
240.402	0.240849
240.152	0.237569
239.735	0.235478
239.735	0.235478
238.873	0.216535
238.02	0.197584
237.175	0.178632
236.337	0.159687
235.507	0.140728
234.682	0.12179
234.488	0.12179
234.065	0.122412
233.639	0.123263
233.208	0.124211
233.208	0.124211
232.646	0.134432
232.079	0.144636
231.511	0.154819
231.511	0.154819
231.368	0.160649
231.218	0.166489
231.065	0.172311
231.065	0.172311
230.945	0.172311
230.825	0.172311
230.706	0.172311
230.706	0.172311
230.485	0.181243
230.062	0.194986
229.463	0.213332
228.715	0.236134
227.847	0.263186
226.886	0.29429
225.859	0.329255
