Uv/Vis Spectrum: 2,2'-Dipyridylamine
Formula: C10H9N3
CAS: 1202-34-2
Melting point: 95
Instrument: Zeiss PMQ II
Origin: INSTITUTE OF ENERGY PROBLEMS OF CHEMICAL PHYSICS, RAS
Wavelength (nm)	Logarithm epsilon
208.13	3.757
208.22	3.754
208.32	3.752
208.41	3.75
208.5	3.748
208.6	3.748
208.69	3.746
208.78	3.744
208.88	3.742
208.97	3.739
209.06	3.739
209.16	3.737
209.25	3.735
209.34	3.733
209.44	3.731
209.72	3.716
210.28	3.703
210.85	3.693
211.43	3.684
212	3.673
212.58	3.667
213.16	3.665
213.75	3.667
214.33	3.671
214.93	3.675
215.52	3.682
216.12	3.688
216.72	3.697
217.32	3.701
217.93	3.71
218.54	3.718
219.16	3.727
219.78	3.733
220.4	3.739
221.02	3.739
221.65	3.733
222.29	3.727
222.92	3.71
223.56	3.695
224.2	3.675
224.85	3.656
225.5	3.639
226.16	3.622
226.82	3.603
227.48	3.584
228.14	3.569
228.81	3.552
229.49	3.535
230.17	3.522
230.85	3.509
231.53	3.501
232.23	3.494
232.92	3.492
233.62	3.494
234.32	3.501
235.03	3.505
235.74	3.515
236.45	3.526
237.17	3.537
237.9	3.552
238.63	3.565
239.36	3.579
240.1	3.594
240.84	3.614
241.59	3.633
242.34	3.652
243.1	3.673
243.86	3.695
244.62	3.716
245.39	3.739
246.17	3.765
246.95	3.789
247.73	3.816
248.52	3.842
249.32	3.87
250.12	3.895
250.93	3.921
251.74	3.944
252.55	3.974
253.37	4.004
254.2	4.034
255.03	4.064
255.87	4.094
256.71	4.119
257.56	4.151
258.42	4.185
259.28	4.215
260.14	4.245
261.01	4.271
261.89	4.294
262.78	4.317
263.67	4.337
264.56	4.354
265.46	4.364
266.37	4.375
267.28	4.377
268.2	4.375
269.13	4.362
270.06	4.337
271	4.313
271.95	4.283
272.9	4.245
273.86	4.2
274.83	4.16
275.8	4.117
276.78	4.074
277.77	4.034
278.76	4
279.76	3.961
280.77	3.923
281.79	3.897
282.81	3.87
283.84	3.846
284.88	3.825
285.92	3.806
286.98	3.793
288.04	3.784
289.11	3.776
290.18	3.774
291.27	3.774
292.36	3.784
293.46	3.795
294.57	3.814
295.69	3.831
296.82	3.852
297.95	3.872
299.1	3.897
300.25	3.919
301.41	3.94
302.58	3.968
303.76	3.995
304.95	4.021
306.15	4.051
307.36	4.083
308.57	4.113
309.8	4.14
311.04	4.172
312.29	4.196
313.54	4.211
314.81	4.219
316.09	4.226
317.38	4.226
318.67	4.219
319.98	4.209
321.3	4.194
322.63	4.17
323.97	4.145
325.33	4.106
326.69	4.038
328.07	3.91
329.46	3.782
330.85	3.654
331.93	3.536
332.64	3.446
333.12	3.381
333.6	3.308
333.97	3.249
334.22	3.196
334.54	3.135
334.73	3.096
