Uv/Vis Spectrum: 9H-Purine
Formula: C5H4N4
CAS: 120-73-0
Melting point: 216-217
Instrument: Zeiss PMQ II
Origin: INSTITUTE OF ENERGY PROBLEMS OF CHEMICAL PHYSICS, RAS
Wavelength (nm)	Logarithm epsilon
192.3	4.392
192.38	4.389
192.46	4.389
192.54	4.389
192.62	4.389
192.7	4.389
192.78	4.387
192.86	4.387
192.94	4.387
193.02	4.387
193.1	4.387
193.18	4.385
193.26	4.385
193.34	4.385
193.42	4.385
193.5	4.385
193.58	4.383
193.66	4.383
193.74	4.383
193.82	4.383
193.9	4.381
194.22	4.375
194.71	4.37
195.2	4.364
195.69	4.362
196.18	4.355
196.68	4.349
197.18	4.345
197.68	4.34
198.18	4.34
198.69	4.338
199.2	4.332
199.71	4.33
200.22	4.323
200.74	4.319
201.26	4.311
201.78	4.302
202.3	4.292
202.83	4.279
203.36	4.264
203.89	4.245
204.43	4.226
204.97	4.202
205.51	4.175
206.05	4.147
206.6	4.115
207.15	4.079
207.71	4.038
208.26	3.998
208.82	3.953
209.38	3.894
209.95	3.847
210.52	3.789
211.09	3.764
211.66	3.721
212.24	3.681
212.82	3.645
213.4	3.611
213.99	3.579
214.58	3.549
215.17	3.521
215.77	3.504
216.37	3.485
216.97	3.466
217.58	3.451
218.19	3.434
218.8	3.415
219.42	3.402
220.04	3.389
220.66	3.372
221.29	3.36
221.92	3.343
222.56	3.332
223.2	3.315
223.84	3.304
224.48	3.298
225.13	3.292
225.79	3.289
226.44	3.279
227.11	3.281
227.77	3.281
228.44	3.283
229.11	3.289
229.79	3.294
230.47	3.3
231.15	3.309
231.84	3.317
232.54	3.328
233.23	3.341
233.93	3.349
234.64	3.362
235.35	3.372
236.06	3.387
236.78	3.4
237.5	3.411
238.23	3.423
238.96	3.438
239.7	3.449
240.44	3.462
241.19	3.472
241.94	3.485
242.69	3.498
243.45	3.509
244.21	3.521
244.98	3.532
245.76	3.543
246.54	3.555
247.32	3.566
248.11	3.581
248.9	3.594
249.7	3.604
250.5	3.619
251.31	3.636
252.13	3.655
252.95	3.675
253.77	3.694
254.6	3.713
255.44	3.734
256.28	3.755
257.13	3.777
257.98	3.798
258.84	3.813
259.7	3.83
260.57	3.84
261.45	3.851
262.33	3.86
263.22	3.862
264.11	3.868
265.01	3.864
265.92	3.858
266.83	3.849
267.75	3.838
268.67	3.823
269.6	3.798
270.54	3.775
271.48	3.734
272.43	3.694
273.39	3.643
274.35	3.589
275.33	3.538
276.3	3.487
277.29	3.421
278.28	3.364
279.28	3.285
280.28	3.196
281.3	3.117
282.32	3.03
283.35	2.966
284.38	2.904
285.43	2.853
286.48	2.798
287.42	2.754
288.6	2.721
289.68	2.689
290.76	2.643
291.85	2.596
292.95	2.549
294.06	2.509
295.17	2.468
296.3	2.409
297.43	2.351
298.57	2.292
299.72	2.238
300.88	2.194
302.05	2.155
303.22	2.107
304.41	2.051
305.61	1.981
306.81	1.921
308.03	1.877
