Uv/Vis Spectrum: 2,4,5-Trioxoimidazolidine
Formula: C3H2N2O3
CAS: 120-89-8
Melting point: 238 dec.
Instrument: Unicam SP 500
Origin: INSTITUTE OF ENERGY PROBLEMS OF CHEMICAL PHYSICS, RAS
Wavelength (nm)	Logarithm epsilon
192.47	3.624
192.55	3.626
192.62	3.628
192.7	3.63
192.78	3.632
192.86	3.635
192.94	3.637
193.42	3.665
193.91	3.688
194.39	3.716
194.88	3.74
195.37	3.761
195.86	3.785
196.35	3.81
196.85	3.832
197.35	3.851
197.85	3.872
198.36	3.892
198.86	3.913
199.37	3.93
199.88	3.95
200.4	3.967
200.92	3.98
201.44	3.997
201.96	4.01
202.49	4.027
203.02	4.038
203.55	4.05
204.08	4.061
204.62	4.072
205.16	4.08
205.7	4.091
206.24	4.098
206.79	4.104
207.34	4.113
207.9	4.117
208.46	4.123
209.02	4.128
209.58	4.132
210.15	4.134
210.71	4.136
211.29	4.138
211.86	4.138
212.44	4.136
213.02	4.134
213.61	4.132
214.2	4.125
214.79	4.121
215.38	4.113
215.98	4.104
216.58	4.093
217.19	4.085
217.8	4.072
218.41	4.061
219.02	4.048
219.64	4.033
220.26	4.018
220.89	3.999
221.52	3.984
222.15	3.965
222.79	3.941
223.43	3.922
224.07	3.898
224.72	3.875
225.37	3.851
226.02	3.825
226.68	3.8
227.34	3.772
228.01	3.744
228.68	3.716
229.35	3.686
230.03	3.656
230.72	3.624
231.4	3.592
232.09	3.562
232.79	3.529
233.49	3.499
234.19	3.467
234.9	3.437
235.61	3.407
236.32	3.384
237.04	3.362
237.77	3.343
238.5	3.324
239.23	3.307
239.97	3.292
240.71	3.279
241.46	3.264
242.21	3.253
242.97	3.242
243.73	3.232
244.49	3.221
245.27	3.21
246.04	3.199
246.82	3.191
247.61	3.18
248.4	3.174
249.19	3.167
250	3.156
250.8	3.146
251.61	3.137
252.43	3.126
253.25	3.114
254.08	3.096
254.91	3.084
255.75	3.064
256.59	3.043
257.44	3.021
258.3	2.994
259.16	2.966
260.02	2.94
260.9	2.912
261.77	2.88
262.66	2.85
263.55	2.818
264.44	2.779
265.35	2.745
266.26	2.704
267.17	2.666
268.09	2.623
269.02	2.582
269.95	2.539
270.89	2.496
271.84	2.449
272.79	2.398
273.75	2.346
274.72	2.293
275.69	2.239
276.63	2.194
277.64	2.145
278.64	2.097
279.66	2.057
280.6	2.017
281.66	1.971
282.71	1.924
283.74	1.883
284.78	1.849
285.82	1.815
286.88	1.791
287.94	1.767
289.01	1.75
290.09	1.735
291.17	1.725
292.27	1.727
293.37	1.733
294.48	1.737
295.6	1.746
296.73	1.748
297.86	1.748
299.01	1.759
300.16	1.767
301.33	1.77
302.5	1.776
303.68	1.778
304.87	1.78
306.07	1.778
307.28	1.776
308.5	1.767
309.72	1.755
310.96	1.737
312.21	1.718
313.47	1.695
314.74	1.667
316.02	1.639
317.31	1.609
318.6	1.572
319.92	1.536
321.2	1.496
322.56	1.448
323.91	1.403
324.92	1.359
326.17	1.305
328.01	1.223
