Uv/Vis Spectrum: 2-chloro - 4- nitrobenzenamine
Formula: C6H5ClN2O2
CAS: 121-87-9
Melting point: 108
Instrument: SFD-2
Origin: INSTITUTE OF ENERGY PROBLEMS OF CHEMICAL PHYSICS, RAS
Wavelength (nm)	Logarithm epsilon
247.369	3.708
248.369	3.701
249.369	3.692
250.369	3.684
251.369	3.676
252.369	3.668
253.369	3.661
254.369	3.655
255.369	3.648
256.369	3.642
257.369	3.634
258.369	3.626
259.369	3.617
260.369	3.606
261.369	3.594
262.369	3.579
263.369	3.563
264.369	3.544
265.369	3.524
266.369	3.501
267.369	3.477
268.369	3.452
269.369	3.426
270.369	3.4
271.369	3.374
272.369	3.349
273.369	3.325
274.369	3.302
275.369	3.282
276.369	3.265
277.369	3.25
278.369	3.239
279.369	3.231
280.369	3.227
281.369	3.226
282.369	3.229
283.369	3.234
284.369	3.243
285.369	3.254
286.369	3.267
287.369	3.282
288.369	3.297
289.369	3.312
290.369	3.327
291.369	3.341
292.369	3.354
293.369	3.367
294.101	3.38
295.207	3.393
296.313	3.409
297.142	3.425
298.589	3.44
299.589	3.453
300.589	3.461
301.589	3.468
302.589	3.474
303.589	3.479
304.589	3.485
305.589	3.49
306.589	3.494
307.589	3.499
308.589	3.502
309.589	3.506
310.589	3.509
311.589	3.512
312.589	3.515
313.589	3.52
314.589	3.527
315.589	3.537
316.589	3.55
317.589	3.565
318.589	3.584
319.589	3.603
320.589	3.622
321.589	3.637
321.753	3.639
322.753	3.662
323.753	3.683
324.753	3.704
325.753	3.724
326.753	3.744
327.753	3.762
328.753	3.781
329.753	3.798
330.753	3.815
331.753	3.832
332.753	3.848
333.753	3.863
334.753	3.879
335.753	3.893
336.753	3.908
337.753	3.921
338.753	3.935
339.753	3.948
340.753	3.961
341.753	3.974
342.753	3.986
343.753	3.997
344.753	4.009
345.753	4.02
346.753	4.031
347.753	4.041
348.753	4.052
349.753	4.061
350.753	4.071
351.753	4.08
352.753	4.088
353.753	4.097
354.753	4.105
355.753	4.112
356.753	4.119
357.753	4.126
358.753	4.132
359.753	4.138
360.753	4.143
361.753	4.147
362.753	4.152
363.753	4.155
364.753	4.159
365.753	4.161
366.753	4.163
367.753	4.165
368.753	4.165
369.753	4.166
370.753	4.165
371.753	4.165
372.753	4.163
373.753	4.161
374.753	4.158
375.753	4.154
376.753	4.15
377.753	4.146
378.753	4.14
379.753	4.134
380.753	4.128
381.753	4.12
382.753	4.112
383.753	4.104
384.753	4.094
385.753	4.084
386.753	4.074
387.753	4.063
388.753	4.051
389.753	4.038
390.753	4.025
391.753	4.012
392.753	3.997
393.753	3.982
394.753	3.967
395.753	3.95
396.753	3.933
397.753	3.916
398.753	3.897
399.753	3.878
400.753	3.859
401.753	3.838
402.753	3.817
403.753	3.794
404.753	3.771
405.753	3.747
406.753	3.721
407.753	3.695
408.753	3.667
409.753	3.638
410.753	3.607
411.753	3.575
412.753	3.541
413.753	3.505
414.753	3.467
415.753	3.426
416.753	3.384
417.753	3.338
418.753	3.289
419.364	3.251
