Uv/Vis Spectrum: Benzoic acid, 3-nitro-
Formula: C7H5NO4
CAS: 121-92-6
Melting point: 141
Instrument: n.i.g.
Origin: INSTITUTE OF ENERGY PROBLEMS OF CHEMICAL PHYSICS, RAS
Wavelength (nm)	Logarithm epsilon
403.126	0.802315
402.668	0.834039
401.796	0.850285
401.382	0.898253
400.516	0.914502
400.105	0.93849
399.245	0.966344
398.836	0.982588
397.981	1.02244
397.575	1.04681
396.725	1.06654
396.281	1.09478
395.477	1.11489
395.036	1.147
394.237	1.16286
393.799	1.19497
392.965	1.21083
392.569	1.25106
391.741	1.27118
391.347	1.28317
390.524	1.29903
390.133	1.32302
389.315	1.33927
388.887	1.35938
388.113	1.37911
387.688	1.39923
386.919	1.41122
386.497	1.43521
385.693	1.44758
385.312	1.46731
384.514	1.47931
384.135	1.50368
382.965	1.52341
382.551	1.54352
381.765	1.55977
381.391	1.57563
380.609	1.58763
380.238	1.60774
379.46	1.61973
379.091	1.63598
378.318	1.64372
377.952	1.66383
377.183	1.67583
376.782	1.70407
376.055	1.70794
375.657	1.71993
374.934	1.73192
374.538	1.74391
373.783	1.75204
373.425	1.7679
372.675	1.77989
372.32	1.79227
371.574	1.80426
371.22	1.82012
370.479	1.82399
370.092	1.84024
369.391	1.84836
369.006	1.86035
368.309	1.86809
367.926	1.88008
367.198	1.88821
366.853	1.9002
366.129	1.90833
365.785	1.91645
365.066	1.92032
364.724	1.92844
364.009	1.93657
363.635	1.9443
362.958	1.94856
362.587	1.95629
361.913	1.96055
361.544	1.96829
360.841	1.97254
358.782	1.99266
358.09	1.99653
357.433	2.00465
356.387	2.00852
356.062	2.01664
353.382	2.02051
351.724	2.02863
348.765	2.0325
346.841	2.04063
342.724	2.0445
342.092	2.05262
339.618	2.05649
337.793	2.06461
336.568	2.06848
335.381	2.0766
334.173	2.08086
332.406	2.0886
331.812	2.09672
330.939	2.10059
330.35	2.10871
329.206	2.11258
328.318	2.12071
327.766	2.12458
326.613	2.13695
325.766	2.14082
325.494	2.14895
324.924	2.15281
324.627	2.16094
324.087	2.16481
323.227	2.1768
322.959	2.18492
322.132	2.19692
321.573	2.20078
321.017	2.21703
320.489	2.2209
320.2	2.23715
319.648	2.24489
319.125	2.25688
318.838	2.26887
318.291	2.27699
318.031	2.28899
317.487	2.30098
317.229	2.31297
316.688	2.32535
316.43	2.34121
315.892	2.3532
315.636	2.37719
315.1	2.38918
314.566	2.40543
314.312	2.42129
313.781	2.43328
313.503	2.44953
313	2.46152
312.473	2.48551
311.948	2.4975
311.698	2.51336
311.176	2.52148
310.928	2.53773
310.408	2.54547
310.136	2.56172
309.643	2.57758
309.373	2.58957
308.882	2.59769
308.613	2.61781
307.858	2.63367
307.615	2.64992
307.106	2.66191
306.84	2.6739
306.357	2.6859
306.093	2.69789
305.589	2.70988
305.349	2.72187
304.848	2.73
304.61	2.75398
304.111	2.75785
303.873	2.77023
302.646	2.82632
301.92	2.83406
301.429	2.83832
301.173	2.85031
300.708	2.85805
300.222	2.87816
299.737	2.89015
299.507	2.90215
298.795	2.91839
298.543	2.93425
298.064	2.94238
297.836	2.95437
297.359	2.9625
297.132	2.97062
296.657	2.97836
296.432	2.98648
295.959	3.00234
295.488	3.02671
295.018	3.03058
294.795	3.04257
293.862	3.05843
293.64	3.07081
293.176	3.07855
292.956	3.08667
292.494	3.09867
292.275	3.10679
291.815	3.11878
291.597	3.12691
290.901	3.1389
290.684	3.15089
290.229	3.15902
290.013	3.16675
289.561	3.17488
289.346	3.18687
288.896	3.19074
288.682	3.20273
288.233	3.21085
287.999	3.22285
287.341	3.23484
287.129	3.24683
286.475	3.25921
286.243	3.2712
285.803	3.27894
285.154	3.29093
284.946	3.29906
284.302	3.31105
283.227	3.33929
282.796	3.34702
282.591	3.3594
282.161	3.36714
281.957	3.37913
281.529	3.38339
281.306	3.39538
280.678	3.40737
280.476	3.4155
279.852	3.42749
279.631	3.43948
279.21	3.44335
279.01	3.45534
278.591	3.46347
278.392	3.47159
277.976	3.47933
277.777	3.48745
277.362	3.49132
277.165	3.49944
276.752	3.50757
276.536	3.51569
275.929	3.52768
275.734	3.53542
275.325	3.54355
275.13	3.55167
274.53	3.56366
274.317	3.57565
273.72	3.57952
273.125	3.59151
272.915	3.59964
272.533	3.60776
271.944	3.61976
271.735	3.62788
271.338	3.63175
271.149	3.63987
270.566	3.65186
270.172	3.65573
269.593	3.66772
269.202	3.67585
269.016	3.68397
268.441	3.68784
267.851	3.69983
267.282	3.71183
266.897	3.71608
266.332	3.72382
265.769	3.73581
265.208	3.74007
264.453	3.75206
264.094	3.76018
263.719	3.76405
263.167	3.77217
261.507	3.77604
260.964	3.78417
259.35	3.78804
257.908	3.79616
256.499	3.7919
255.457	3.78417
254.075	3.77991
253.217	3.77217
252.021	3.76792
251.177	3.76018
250.515	3.75593
250.017	3.74819
249.186	3.74394
248.186	3.73581
247.053	3.73194
245.745	3.72382
241.019	3.72807
239.626	3.73581
239.332	3.74007
237.958	3.74819
237.509	3.75593
236.013	3.76018
235.571	3.76792
234.974	3.77217
234.691	3.77991
234.24	3.78417
233.37	3.80003
232.938	3.80428
232.646	3.81202
232.078	3.81628
231.637	3.82827
231.211	3.83214
230.923	3.84026
230.364	3.84838
230.228	3.85612
229.374	3.87237
229.239	3.88011
228.674	3.8921
228.125	3.90835
227.845	3.91222
227.712	3.92034
227.287	3.93233
