Uv/Vis Spectrum: Benzene, 1-methyl-2,4-dinitro-
Formula: C7H6N2O4
CAS: 121-14-2
Melting point: 71
Instrument: SF-8
Origin: INSTITUTE OF ENERGY PROBLEMS OF CHEMICAL PHYSICS, RAS
Wavelength (nm)	Logarithm epsilon
222	4.34
223.5	4.353
225	4.366
226.5	4.378
228	4.391
229.5	4.403
231	4.415
232.5	4.426
234	4.436
235.5	4.444
237	4.451
238.5	4.455
240	4.457
241.5	4.457
243	4.455
244.5	4.451
246	4.445
247.5	4.437
249	4.429
250.5	4.419
252	4.409
253.5	4.398
255	4.387
256.5	4.375
258	4.363
259.5	4.351
261	4.337
262.5	4.323
264	4.307
265.5	4.289
267	4.269
268.5	4.246
270	4.221
271.5	4.194
273	4.163
274.5	4.13
276	4.095
277.5	4.059
279	4.021
280.5	3.982
282	3.943
283.5	3.905
285	3.867
286.5	3.83
288	3.794
289.5	3.758
291	3.722
292.5	3.686
294	3.651
295.5	3.618
297	3.591
