Uv/Vis Spectrum: Metanilic acid
Formula: C6H7NO3S
CAS: 121-47-1
Melting point: dec
Instrument: n.i.g.
Origin: INSTITUTE OF ENERGY PROBLEMS OF CHEMICAL PHYSICS, RAS
Wavelength (nm)	Logarithm epsilon
220.96	3.232
221.54	3.196
222.12	3.164
222.7	3.129
223.29	3.111
223.88	3.09
224.47	3.076
225.07	3.058
225.66	3.051
226.27	3.04
226.87	3.037
227.48	3.033
228.09	3.033
228.7	3.037
229.32	3.044
229.94	3.058
230.57	3.079
231.2	3.097
231.83	3.115
232.46	3.132
233.1	3.147
233.74	3.157
234.39	3.164
235.04	3.175
235.69	3.178
236.34	3.178
237	3.182
237.67	3.178
238.34	3.175
239.01	3.164
239.68	3.15
240.36	3.139
241.04	3.125
241.73	3.104
242.42	3.079
243.11	3.051
243.81	3.019
244.51	2.984
245.22	2.952
245.93	2.92
246.65	2.885
247.36	2.853
248.09	2.814
248.81	2.785
249.55	2.754
250.28	2.725
251.02	2.693
251.77	2.661
252.52	2.637
253.27	2.608
254.03	2.573
254.79	2.537
255.56	2.495
256.26	2.457
256.75	2.432
257	2.418
257.25	2.409
257.57	2.399
257.73	2.399
257.89	2.396
258.04	2.396
258.2	2.393
258.36	2.392
258.51	2.392
258.67	2.389
258.81	2.388
258.99	2.385
259.14	2.384
259.3	2.382
259.46	2.382
259.62	2.382
259.78	2.382
259.94	2.385
260.1	2.389
260.26	2.393
260.42	2.399
260.58	2.406
260.74	2.421
260.9	2.46
261.06	2.481
261.2	2.51
261.38	2.516
261.54	2.52
261.7	2.52
261.86	2.516
262.03	2.512
262.19	2.501
262.35	2.484
262.52	2.465
262.67	2.449
262.84	2.435
263	2.424
263.16	2.414
263.33	2.41
263.47	2.403
263.64	2.4
263.82	2.396
263.98	2.392
264.14	2.389
264.31	2.385
264.47	2.382
264.64	2.382
264.8	2.382
264.97	2.382
265.13	2.382
265.3	2.382
265.47	2.382
265.63	2.382
265.82	2.384
265.98	2.386
266.15	2.389
266.3	2.392
266.47	2.396
266.64	2.402
266.81	2.409
266.97	2.414
267.14	2.421
267.31	2.431
267.47	2.449
267.67	2.494
267.81	2.523
267.98	2.552
268.13	2.569
268.33	2.58
268.49	2.587
268.66	2.591
268.83	2.591
269	2.594
269.17	2.594
269.34	2.594
269.51	2.591
269.68	2.591
269.85	2.587
270.03	2.584
270.2	2.576
270.37	2.562
270.54	2.534
270.72	2.449
270.89	2.371
271.06	2.332
271.23	2.307
271.41	2.293
271.58	2.286
271.76	2.279
271.93	2.272
272.1	2.265
272.28	2.258
272.45	2.251
273.28	2.226
274.21	2.212
275.1	2.212
276	2.212
276.9	2.233
277.8	2.272
278.72	2.325
279.63	2.382
280.56	2.428
281.49	2.474
282.42	2.516
283.37	2.545
284.32	2.566
285.27	2.58
286.23	2.587
287.2	2.591
288.18	2.594
289.16	2.594
290.18	2.591
291.14	2.58
292.14	2.566
293.15	2.548
294.17	2.53
295.19	2.509
296.22	2.484
297.26	2.463
298.3	2.438
299.38	2.411
300.42	2.385
301.48	2.36
302.56	2.329
303.64	2.3
304.73	2.265
305.83	2.229
306.93	2.19
308.05	2.155
309.17	2.109
310.3	2.07
311.44	2.013
312.58	1.957
313.74	1.9
314.9	1.836
316.08	1.769
317.26	1.698
318.45	1.613
319.65	1.514
320.85	1.408
322.07	1.298
322.93	1.215
323.87	1.123
324.14	1.09
324.33	1.071
324.53	1.054
