Uv/Vis Spectrum: Triethylamine
Formula: C6H15N
CAS: 121-44-8
Melting point: -114.7
Boiling point: 89
Instrument: n.i.g.
Pressure: 0.01-1.8 mm Hg
Origin: INSTITUTE OF ENERGY PROBLEMS OF CHEMICAL PHYSICS, RAS
Wavelength (nm)	Logarithm epsilon
240.534	2.63332
240.534	2.63332
239.833	2.67386
239.135	2.71095
238.442	2.74511
238.442	2.74511
237.543	2.79453
236.648	2.83901
235.754	2.87956
235.754	2.87956
234.196	2.97028
233.155	3.02254
232.507	3.05269
232.14	3.06964
231.94	3.07954
231.801	3.08748
231.801	3.08748
230.993	3.12499
230.187	3.15951
229.383	3.19149
229.383	3.19149
229.022	3.20959
228.507	3.23382
227.544	3.27889
227.544	3.27889
226.851	3.31211
226.371	3.33398
226.036	3.34887
225.785	3.36019
225.552	3.37085
225.277	3.38351
225.277	3.38351
224.998	3.40015
224.656	3.41851
224.295	3.4367
223.958	3.45311
223.687	3.46636
223.524	3.47519
223.524	3.47519
223.472	3.4758
223.415	3.47645
223.356	3.47714
223.356	3.47714
222.843	3.50272
222.409	3.52335
222.045	3.54002
221.742	3.55351
221.491	3.56445
221.284	3.57336
221.113	3.5807
220.97	3.5869
220.845	3.59233
220.732	3.59735
220.623	3.60231
220.508	3.60753
220.38	3.61331
220.38	3.61331
220.219	3.62279
220.058	3.63206
219.896	3.64114
219.735	3.65004
219.572	3.65877
219.41	3.66734
219.246	3.67574
219.246	3.67574
218.954	3.68566
218.662	3.69536
218.371	3.70485
218.371	3.70485
217.729	3.72
217.429	3.72642
217.209	3.72992
217.209	3.72992
216.905	3.73374
216.319	3.74164
215.468	3.75246
215.468	3.75246
215.165	3.75502
214.862	3.75757
214.555	3.76014
214.555	3.76014
213.855	3.76451
213.386	3.76712
212.745	3.77025
212.745	3.77025
212.567	3.77048
212.221	3.77061
211.413	3.77075
211.413	3.77075
210.633	3.76893
210.132	3.76749
209.606	3.76599
209.606	3.76599
209.147	3.76315
208.943	3.76199
208.818	3.76151
208.818	3.76151
208.031	3.75562
207.249	3.74965
206.468	3.74359
206.468	3.74359
205.435	3.73329
204.776	3.72616
204.488	3.72323
204.488	3.72323
203.854	3.71483
203.572	3.71097
203.427	3.70947
203.427	3.70947
203.318	3.70738
203.088	3.70401
202.667	3.69765
202.667	3.69765
202.603	3.69625
202.523	3.69499
202.482	3.69381
202.482	3.69381
202.323	3.69153
202.144	3.68832
201.98	3.68607
201.98	3.68607
201.576	3.67817
201.286	3.67294
200.977	3.66694
200.977	3.66694
200.932	3.66656
200.884	3.66617
200.834	3.66574
200.834	3.66574
200.647	3.66118
200.412	3.65661
200.198	3.65223
200.198	3.65223
199.866	3.64656
199.34	3.63624
198.899	3.62783
198.899	3.62783
198.814	3.62569
198.573	3.62061
198.091	3.60918
198.091	3.60918
197.999	3.60808
197.964	3.60713
197.956	3.60553
197.755	3.60416
197.729	3.60293
197.704	3.60169
197.684	3.60045
197.684	3.60045
197.613	3.59969
197.546	3.59897
197.481	3.59826
197.481	3.59826
197.465	3.59692
197.452	3.59557
197.442	3.59422
197.442	3.59422
197.312	3.59016
197.23	3.58831
197.127	3.58708
197.127	3.58708
197.126	3.58628
197.124	3.58552
197.123	3.58478
196.793	3.58096
196.777	3.57956
196.764	3.57816
196.753	3.57675
196.753	3.57675
196.672	3.57418
196.608	3.57287
196.508	3.57169
196.508	3.57169
196.474	3.5695
196.402	3.56703
196.232	3.56213
196.232	3.56213
196.142	3.56089
196.108	3.55984
196.1	3.55805
196.1	3.55805
196.052	3.5575
196.007	3.55699
195.964	3.55651
195.964	3.55651
195.783	3.55072
195.602	3.5449
195.421	3.53903
195.421	3.53903
195.374	3.53846
195.328	3.53793
195.286	3.53742
195.286	3.53742
195.114	3.53137
194.944	3.52528
194.777	3.51913
194.777	3.51913
194.646	3.51644
194.485	3.51228
194.242	3.50619
194.242	3.50619
194.226	3.50445
194.214	3.50275
194.203	3.50107
194.203	3.50107
194.157	3.50045
194.112	3.49987
194.071	3.49932
194.071	3.49932
193.646	3.48337
193.374	3.47413
193.242	3.46904
193.242	3.46904
193.196	3.46869
193.152	3.46838
193.112	3.46812
193.112	3.46812
192.921	3.4616
192.733	3.45498
192.548	3.44826
192.548	3.44826
192.204	3.43992
191.94	3.43308
191.558	3.42375
191.558	3.42375
191.505	3.42318
191.455	3.4216
191.364	3.41761
191.364	3.41761
191.29	3.41741
191.217	3.41727
191.148	3.41716
191.148	3.41716
191.111	3.41567
191.078	3.41418
191.046	3.41268
191.046	3.41268
190.883	3.41044
190.623	3.40529
190.042	3.39256
190.042	3.39256
189.939	3.39203
189.838	3.3915
189.74	3.39096
189.74	3.39096
189.717	3.38996
189.696	3.38895
189.678	3.38794
189.678	3.38794
189.582	3.38715
189.488	3.38643
189.398	3.38573
189.398	3.38573
188.728	3.37733
188.124	3.37022
187.845	3.36656
187.845	3.36656
187.636	3.36518
187.3	3.3618
186.652	3.35552
186.652	3.35552
186.289	3.35408
185.978	3.35229
185.655	3.35082
185.655	3.35082
185.354	3.34911
184.716	3.34647
183.865	3.34246
183.865	3.34246
183.598	3.3426
183.332	3.34274
183.066	3.34288
183.066	3.34288
182.653	3.3444
182.244	3.3459
181.84	3.3474
181.84	3.3474
181.56	3.34941
181.283	3.35135
181.01	3.35324
181.01	3.35324
180.67	3.35688
180.334	3.36048
180.001	3.36406
180.001	3.36406
179.873	3.36697
179.576	3.37258
178.887	3.38487
177.59	3.40714
177.59	3.40714
176.468	3.42216
176.025	3.42771
175.875	3.42889
175.875	3.42889
175.588	3.4323
175.119	3.43732
174.446	3.44478
174.446	3.44478
174.257	3.44598
174.069	3.44712
173.883	3.44823
173.883	3.44823
173.726	3.44818
173.568	3.44744
173.275	3.44533
173.275	3.44533
172.926	3.44095
172.647	3.43675
172.197	3.42908
172.197	3.42908
171.602	3.41611
171.013	3.4028
170.43	3.3891
170.43	3.3891
170.016	3.38083
169.579	3.37271
168.75	3.35755
168.75	3.35755
168.105	3.34931
167.651	3.34388
167.428	3.34054
167.428	3.34054
167.033	3.33716
166.283	3.32967
165.332	3.3205
165.332	3.3205
164.949	3.31889
164.567	3.31727
164.188	3.31565
164.116	3.31501
163.467	3.31561
162.822	3.31622
162.181	3.31686
161.544	3.31755
161.544	3.31755
161.273	3.31991
160.997	3.32174
160.48	3.3246
