Uv/Vis Spectrum: 1,3-Benzenedicarboxylic acid
Formula: C8H6O4
CAS: 121-91-5
Melting point: 348.5
Instrument: Unicam SP 700
Origin: INSTITUTE OF ENERGY PROBLEMS OF CHEMICAL PHYSICS, RAS
Wavelength (nm)	Logarithm epsilon
209.52	4.637
209.68	4.637
209.85	4.637
210.02	4.64
210.35	4.627
211.52	4.62
212.69	4.597
213.86	4.587
215.03	4.55
216.19	4.483
217.36	4.399
218.53	4.321
219.7	4.271
220.87	4.237
222.04	4.214
223.21	4.204
224.37	4.197
225.54	4.19
226.71	4.187
227.88	4.173
229.05	4.17
230.22	4.157
231.39	4.143
232.55	4.126
233.72	4.11
234.89	4.089
236.06	4.059
237.23	4.026
238.4	3.992
239.57	3.945
240.73	3.898
241.9	3.844
243.07	3.784
244.24	3.72
245.41	3.642
246.58	3.572
247.75	3.488
248.91	3.407
250.08	3.323
251.25	3.236
252.42	3.159
253.59	3.088
254.76	3.014
255.93	2.944
257.1	2.886
258.26	2.849
259.43	2.819
260.6	2.799
261.77	2.786
262.94	2.772
264.11	2.772
265.28	2.772
266.44	2.776
267.5	2.781
268.78	2.789
269.95	2.799
271.12	2.806
272.29	2.819
273.65	2.835
275.38	2.852
276.52	2.864
277.09	2.872
277.47	2.877
277.92	2.882
278.37	2.889
278.7	2.895
279.02	2.898
279.29	2.9
279.57	2.904
279.97	2.907
280.3	2.91
280.63	2.91
280.96	2.909
281.3	2.906
281.61	2.902
281.97	2.893
282.3	2.883
282.64	2.87
282.97	2.856
283.31	2.846
283.64	2.833
283.97	2.823
284.32	2.814
284.64	2.806
284.91	2.798
285.28	2.791
285.64	2.786
285.98	2.786
286.42	2.79
286.87	2.799
287.32	2.815
287.65	2.826
287.98	2.839
288.31	2.853
288.65	2.863
288.98	2.87
289.32	2.87
289.65	2.863
289.98	2.849
290.3	2.83
290.6	2.792
290.9	2.753
291.26	2.715
291.62	2.657
292.15	2.587
292.65	2.507
292.99	2.443
293.32	2.366
293.59	2.288
293.99	2.198
294.3	2.111
294.72	2.03
294.99	1.949
295.33	1.885
295.66	1.784
295.99	1.71
296.33	1.64
296.66	1.569
