Uv/Vis Spectrum: Benzenesulfonic acid, 4-amino-
Formula: C6H7NO3S
CAS: 121-57-3
Melting point: 288 dec
Instrument: Beckman DU
Origin: INSTITUTE OF ENERGY PROBLEMS OF CHEMICAL PHYSICS, RAS
Wavelength (nm)	Logarithm epsilon
205.09	4.035
205.6	4.004
205.94	3.973
206.45	3.946
206.96	3.919
207.47	3.891
207.81	3.861
208.32	3.833
208.83	3.806
209.34	3.779
209.84	3.752
210.18	3.721
210.69	3.694
211.2	3.666
211.71	3.636
212.05	3.605
212.39	3.574
212.73	3.543
212.9	3.513
213.24	3.482
213.58	3.451
213.92	3.421
214.26	3.39
214.6	3.359
214.94	3.329
215.28	3.298
215.45	3.267
215.78	3.236
216.12	3.206
216.46	3.175
216.97	3.144
217.65	3.117
218.5	3.09
220.03	3.097
221.05	3.117
221.9	3.141
222.57	3.168
223.42	3.192
224.1	3.219
224.95	3.247
225.63	3.274
226.48	3.298
227.16	3.325
228.01	3.352
228.85	3.38
229.53	3.407
230.38	3.434
231.06	3.462
231.91	3.489
232.59	3.516
233.44	3.54
234.12	3.567
234.96	3.595
235.64	3.622
236.49	3.646
237.17	3.673
238.19	3.697
239.21	3.721
240.23	3.741
241.41	3.758
242.6	3.775
243.79	3.792
245.15	3.809
246.68	3.816
248.03	3.827
249.56	3.823
250.92	3.809
252.28	3.792
253.63	3.775
254.82	3.755
255.67	3.731
256.69	3.711
257.54	3.687
258.39	3.663
259.07	3.636
259.74	3.608
260.59	3.581
261.1	3.554
261.95	3.526
262.29	3.496
263.14	3.472
263.65	3.445
264.5	3.417
265.01	3.39
265.86	3.363
266.53	3.335
267.38	3.308
267.89	3.277
268.4	3.25
269.08	3.223
269.93	3.195
270.44	3.168
271.29	3.141
271.8	3.114
272.64	3.086
273.15	3.059
273.83	3.032
274.68	3.008
275.7	2.984
276.89	2.964
278.08	2.946
279.43	2.929
280.79	2.916
282.32	2.909
283.68	2.895
285.03	2.878
286.39	2.861
287.58	2.841
288.77	2.82
289.79	2.796
290.64	2.773
291.65	2.749
292.5	2.721
293.52	2.697
294.2	2.67
294.88	2.643
295.39	2.616
296.07	2.588
296.58	2.561
297.26	2.534
297.93	2.506
298.61	2.479
299.12	2.452
299.63	2.425
300.31	2.397
300.82	2.37
301.33	2.343
302.01	2.315
302.52	2.288
303.03	2.261
303.54	2.234
304.04	2.206
304.72	2.179
305.23	2.148
305.57	2.118
306.08	2.09
306.59	2.06
307.1	2.029
307.61	1.998
308.12	1.971
308.63	1.944
308.97	1.913
309.31	1.882
309.82	1.855
310.15	1.824
310.66	1.793
311	1.763
311.34	1.732
311.85	1.701
312.02	1.671
312.53	1.64
312.87	1.609
313.21	1.579
313.55	1.548
315.08	1.388
