Uv/Vis Spectrum: Benzoic acid, 4-hydroxy-3-methoxy-
Formula: C8H8O4
CAS: 121-34-6
Melting point: 211-212
Instrument: Beckman DU
Origin: INSTITUTE OF ENERGY PROBLEMS OF CHEMICAL PHYSICS, RAS
Wavelength (nm)	Logarithm epsilon
201.7	4.301
202.88	4.318
204.24	4.332
205.76	4.335
207.29	4.335
208.82	4.328
210.17	4.311
211.36	4.294
212.71	4.281
214.24	4.277
215.77	4.284
217.12	4.294
218.65	4.291
220.17	4.281
221.53	4.264
222.38	4.24
223.39	4.216
224.07	4.189
224.92	4.162
225.26	4.131
225.77	4.104
226.28	4.077
226.79	4.05
227.12	4.019
227.63	3.989
227.97	3.958
228.14	3.928
228.31	3.897
228.48	3.867
228.82	3.836
228.99	3.806
229.16	3.775
229.67	3.745
230.01	3.714
230.35	3.683
230.85	3.656
231.36	3.626
231.87	3.599
232.38	3.572
233.23	3.544
234.58	3.527
235.77	3.544
236.79	3.565
237.8	3.588
238.48	3.616
239.16	3.643
240.01	3.667
240.69	3.694
241.53	3.721
242.55	3.741
243.4	3.768
244.25	3.792
245.26	3.816
246.28	3.84
247.3	3.863
248.32	3.887
249.33	3.907
250.35	3.931
251.37	3.952
252.55	3.968
253.74	3.985
254.93	4.002
256.28	4.019
257.64	4.03
259.17	4.03
260.69	4.026
262.05	4.016
263.4	3.999
264.59	3.982
265.78	3.965
266.79	3.945
267.98	3.928
269	3.904
270.02	3.88
270.86	3.857
271.88	3.833
272.56	3.806
273.41	3.782
274.25	3.755
275.1	3.731
275.95	3.707
277.3	3.69
278.83	3.683
280.36	3.683
281.88	3.687
283.24	3.7
284.42	3.717
285.78	3.728
287.14	3.745
288.66	3.751
290.02	3.762
291.55	3.762
292.9	3.751
294.43	3.741
295.78	3.724
296.63	3.7
297.65	3.68
298.33	3.653
299.17	3.629
299.85	3.602
300.53	3.575
301.21	3.548
301.72	3.521
302.23	3.493
302.73	3.466
303.07	3.436
303.58	3.405
303.92	3.375
304.43	3.348
304.77	3.317
305.28	3.286
305.45	3.256
305.79	3.225
306.29	3.198
306.63	3.168
306.97	3.137
307.14	3.107
307.48	3.076
307.82	3.046
308.16	3.015
308.5	2.985
308.67	2.954
309.01	2.923
309.35	2.893
309.68	2.862
310.02	2.832
310.19	2.801
310.53	2.771
310.7	2.74
311.04	2.71
311.38	2.679
311.72	2.649
311.89	2.618
312.23	2.588
312.57	2.557
312.91	2.526
313.24	2.496
313.58	2.465
313.75	2.435
314.09	2.404
314.43	2.374
314.6	2.343
314.94	2.313
315.28	2.282
315.62	2.252
315.96	2.221
316.3	2.191
316.64	2.16
316.97	2.129
317.14	2.099
317.48	2.068
317.82	2.038
318.16	2.007
318.5	1.977
