Uv/Vis Spectrum: Ethanol, 2-(phenylamino)-
Formula: C8H11NO
CAS: 122-98-5
Instrument: unknown
Origin: INSTITUTE OF ENERGY PROBLEMS OF CHEMICAL PHYSICS, RAS
Wavelength (nm)	Logarithm epsilon
229.94	1.695
230.02	1.7
230.11	1.7
230.19	1.704
230.28	1.704
230.36	1.708
230.45	1.708
230.53	1.713
230.62	1.717
230.7	1.717
230.78	1.721
230.95	1.717
231.29	1.73
231.63	1.746
231.97	1.758
232.3	1.769
232.64	1.784
232.98	1.798
233.32	1.812
233.65	1.822
233.99	1.839
234.33	1.851
234.67	1.867
235	1.879
235.34	1.893
235.68	1.904
236.02	1.918
236.35	1.931
236.69	1.944
237.03	1.956
237.37	1.969
237.7	1.98
238.04	1.992
238.38	2.005
238.72	2.016
239.05	2.029
239.39	2.039
239.73	2.049
240.07	2.059
240.4	2.068
240.74	2.08
241.08	2.092
241.42	2.101
241.75	2.11
242.09	2.118
242.43	2.128
242.77	2.138
243.1	2.146
243.44	2.154
243.78	2.16
244.12	2.166
244.45	2.171
244.79	2.175
245.13	2.178
245.47	2.184
245.8	2.191
246.14	2.203
246.48	2.216
246.82	2.23
247.15	2.243
247.49	2.255
247.83	2.266
248.17	2.27
248.5	2.267
248.84	2.26
249.18	2.249
249.52	2.239
249.85	2.235
250.19	2.232
250.53	2.232
250.87	2.233
251.2	2.236
251.54	2.243
251.88	2.253
252.22	2.265
252.55	2.278
252.89	2.289
253.23	2.303
253.57	2.315
253.9	2.322
254.24	2.315
254.58	2.301
254.92	2.278
255.25	2.255
255.59	2.231
255.93	2.205
256.27	2.188
256.6	2.183
256.94	2.18
257.28	2.181
257.62	2.183
257.95	2.178
258.29	2.174
258.63	2.169
258.97	2.169
259.3	2.169
259.64	2.172
259.98	2.177
260.32	2.165
260.65	2.148
260.99	2.113
261.33	2.07
261.67	2.025
262	1.978
262.34	1.946
262.68	1.929
263.02	1.918
263.35	1.918
263.69	1.929
264.03	1.918
264.37	1.893
264.7	1.851
265.04	1.798
265.38	1.742
265.72	1.667
266.05	1.595
266.39	1.508
266.73	1.39
267.07	1.288
267.4	1.24
267.74	1.214
268.08	1.156
268.42	1.107
268.75	1.07
269.09	0.987
269.43	0.939
269.77	0.855
270.1	0.788
270.44	0.663
270.78	0.612
271.12	0.408
