Uv/Vis Spectrum: Hydrazine, 1,2-diphenyl-
Formula: C12H12N2
CAS: 122-66-7
Melting point: 131
Instrument: Beckman DK 2
Origin: INSTITUTE OF ENERGY PROBLEMS OF CHEMICAL PHYSICS, RAS
Wavelength (nm)	Logarithm epsilon
209.99	4.053
210.08	4.051
210.18	4.051
210.27	4.049
210.37	4.047
210.47	4.045
210.56	4.042
210.66	4.04
210.75	4.038
210.85	4.036
210.95	4.034
211.04	4.032
211.14	4.03
211.43	4.019
211.82	4.002
212.21	3.991
212.6	3.981
212.99	3.968
213.38	3.957
213.78	3.947
214.17	3.938
214.57	3.927
214.97	3.919
215.37	3.91
215.77	3.906
216.18	3.9
216.58	3.895
216.99	3.887
217.4	3.883
217.81	3.885
218.22	3.887
218.63	3.887
219.04	3.889
219.46	3.891
219.88	3.897
220.3	3.9
220.72	3.902
221.14	3.908
221.56	3.91
221.99	3.917
222.42	3.919
222.85	3.925
223.28	3.929
223.71	3.938
224.14	3.942
224.58	3.949
225.02	3.955
225.46	3.961
225.9	3.968
226.34	3.974
226.78	3.983
227.23	3.989
227.68	3.996
228.13	4.002
228.58	4.01
229.03	4.021
229.49	4.025
229.94	4.034
230.4	4.042
230.86	4.053
231.32	4.06
231.79	4.068
232.25	4.077
232.72	4.085
233.19	4.094
233.66	4.104
234.14	4.111
234.61	4.117
235.09	4.126
235.54	4.131
236.05	4.138
236.53	4.147
237.02	4.158
237.5	4.166
237.99	4.177
238.49	4.185
238.95	4.192
239.47	4.2
239.97	4.209
240.47	4.217
240.97	4.228
241.48	4.234
241.98	4.243
242.49	4.251
243	4.262
243.51	4.271
244.03	4.277
244.54	4.286
245.06	4.294
245.58	4.301
246.1	4.305
246.63	4.311
247.16	4.313
247.69	4.313
248.22	4.307
248.75	4.298
249.29	4.288
249.83	4.275
250.37	4.264
250.91	4.249
251.46	4.23
252.01	4.211
252.56	4.19
253.11	4.168
253.67	4.149
254.23	4.126
254.79	4.094
255.35	4.064
255.92	4.032
256.48	4
257.05	3.97
257.63	3.938
258.2	3.906
258.78	3.874
259.36	3.848
259.95	3.819
260.53	3.789
261.12	3.759
261.71	3.718
262.31	3.695
262.9	3.665
263.5	3.637
264.11	3.612
264.71	3.584
265.32	3.558
265.93	3.533
266.54	3.511
267.16	3.499
267.78	3.479
268.4	3.469
269.03	3.456
269.65	3.448
270.28	3.443
270.92	3.439
271.55	3.437
272.19	3.437
272.84	3.439
273.48	3.443
274.13	3.448
274.78	3.452
275.44	3.458
276.1	3.462
276.76	3.469
277.42	3.475
278.09	3.479
278.76	3.488
279.44	3.494
280.11	3.501
280.79	3.507
281.48	3.514
282.52	3.523
283.06	3.528
283.6	3.533
284.27	3.538
284.99	3.544
285.71	3.551
286.36	3.558
287.01	3.564
287.79	3.569
288.49	3.573
289.23	3.578
289.92	3.58
290.68	3.582
291.42	3.582
292.15	3.58
292.89	3.575
293.64	3.571
294.36	3.566
295.14	3.558
295.89	3.548
296.65	3.537
297.42	3.52
298.18	3.505
298.96	3.488
299.73	3.467
300.51	3.443
301.29	3.416
302.12	3.386
302.91	3.355
303.86	3.319
304.74	3.282
305.37	3.255
306.14	3.22
306.9	3.179
307.71	3.136
308.54	3.076
309.36	3.004
310.19	2.94
311.03	2.87
311.87	2.808
312.71	2.739
313.56	2.663
314.41	2.601
315.27	2.533
316.13	2.464
317	2.396
317.87	2.332
318.75	2.247
319.63	2.181
320.52	2.119
321.41	2.057
