Uv/Vis Spectrum: Diphenylamine
Formula: C12H11N
CAS: 122-39-4
Melting point: 52.9
Boiling point: 302
Instrument: n.i.g.
Origin: INSTITUTE OF ENERGY PROBLEMS OF CHEMICAL PHYSICS, RAS
Wavelength (nm)	Logarithm epsilon
334.54	1.26831
334.395	1.28909
333.942	1.46554
333.884	1.48356
333.837	1.49277
333.832	1.38346
333.76	1.40893
333.74	1.49324
333.662	1.40996
333.599	1.41071
333.547	1.49458
333.099	1.5008
332.876	1.50391
332.804	1.50656
332.75	1.50788
332.639	1.56367
332.569	1.59177
332.432	1.61826
332.348	1.63176
332.167	1.64408
332.076	1.65024
331.917	1.65378
331.824	1.65555
331.757	1.66272
331.497	1.75395
331.471	1.72498
330.78	1.80895
330.728	1.83192
330.684	1.84365
330.593	1.84939
330.077	1.91093
330.021	1.92938
329.975	1.9386
329.887	1.94698
329.601	1.98037
329.54	1.99369
329.493	2.00059
329.338	2.00546
329.247	2.00809
329.005	2.03097
328.134	2.10092
327.995	2.1229
327.426	2.1849
327.194	2.20559
327.079	2.21613
327.017	2.22681
326.71	2.25615
326.641	2.2588
326.589	2.26012
326.358	2.28049
325.64	2.34414
325.502	2.36348
325.419	2.37316
325.349	2.37418
324.809	2.41541
324.745	2.42245
324.695	2.42597
324.543	2.42863
324.453	2.42996
324.278	2.43965
324.19	2.4445
324.128	2.45417
323.485	2.51223
323.007	2.55353
322.56	2.60328
322.278	2.63758
322.12	2.65473
322.029	2.65575
321.52	2.69303
321.459	2.7027
321.412	2.70754
321.24	2.71856
321.155	2.72427
321.016	2.73847
320.933	2.74582
320.865	2.74684
320.101	2.78812
320.042	2.7988
319.996	2.80438
319.91	2.81054
319.301	2.8629
319.016	2.88956
318.831	2.90338
318.764	2.9044
318.024	2.96324
317.903	2.99487
316.646	3.0693
316.591	3.08381
316.547	3.09127
316.403	3.09494
316.319	3.09702
316.18	3.1067
316.098	3.11155
316.01	3.11257
315.42	3.17007
315.417	3.16624
315.411	3.15909
315.256	3.18197
315.174	3.18811
315.05	3.21493
314.976	3.22854
314.757	3.25404
314.632	3.2668
314.339	3.27138
314.181	3.27876
314.177	3.27391
313.269	3.3215
313.057	3.35185
312.935	3.36722
312.87	3.36824
312.147	3.41303
312.088	3.4214
312.044	3.42578
311.909	3.4356
311.829	3.44075
311.662	3.4443
311.578	3.44607
311.437	3.44711
311.354	3.44787
311.294	3.45403
310.789	3.48266
310.736	3.49597
310.693	3.50288
310.561	3.51477
310.483	3.52092
310.347	3.5281
310.267	3.53193
310.183	3.53296
309.25	3.58877
309.191	3.59493
309.146	3.59801
309.011	3.60519
308.932	3.60903
308.869	3.61005
307.926	3.66893
307.657	3.68843
306.847	3.73325
306.674	3.74043
306.504	3.74956
306.24	3.77257
306.093	3.78432
305.868	3.78538
305.086	3.81921
305.028	3.82407
304.984	3.82669
304.509	3.84568
304.329	3.85405
304.195	3.85758
304.117	3.85936
304.061	3.86652
302.708	3.91101
302.653	3.91938
302.611	3.92376
302.551	3.92599
302.507	3.9273
302.217	3.9335
302.067	3.94363
302.063	3.93882
302.061	3.93661
301.778	3.94984
301.622	3.95294
301.563	3.95559
301.519	3.95691
301.463	3.96265
300.363	3.99886
300.308	4.00603
300.266	4.00986
300.111	4.01353
300.034	4.01561
299.767	4.01918
299.619	4.02097
299.468	4.02816
299.392	4.03199
299.333	4.03301
299.289	4.03377
299.002	4.03484
297.375	4.07588
297.32	4.08074
297.278	4.08337
297.016	4.08827
296.872	4.09092
296.595	4.09933
296.445	4.10374
296.234	4.106
296.115	4.10732
295.99	4.11219
295.917	4.11584
295.916	4.11483
293.744	4.15876
293.538	4.16144
293.421	4.16279
292.82	4.17358
292.507	4.17923
292.45	4.17924
290.282	4.21616
290.08	4.21842
288.876	4.23316
288.416	4.23548
288.175	4.23683
287.786	4.24264
287.578	4.24575
287.186	4.24584
285.193	4.25376
284.461	4.25263
284.106	4.25225
283.706	4.24984
280.726	4.23681
280.404	4.23559
280.244	4.23517
279.739	4.23135
279.487	4.22964
279.052	4.2226
278.434	4.21366
277.621	4.21122
277.217	4.21
277.142	4.19685
277.115	4.19027
276.853	4.19033
276.735	4.19036
276.161	4.18058
273.586	4.1288
273.52	4.12752
273.497	4.12707
273.119	4.1127
272.94	4.1057
272.701	4.10313
272.591	4.10184
272.502	4.08826
271.41	4.07492
271.409	4.07362
271.409	4.07316
270.979	4.06098
270.777	4.05488
270.406	4.03999
266.571	3.91549
266.507	3.9107
266.484	3.90849
266.253	3.90111
266.147	3.89761
266.02	3.89149
265.956	3.88844
265.726	3.88105
265.62	3.87755
265.556	3.87142
264.491	3.83615
264.31	3.8387
264.228	3.83973
264.11	3.83625
264.062	3.83451
263.94	3.82326
263.89	3.81787
263.65	3.8128
263.542	3.8105
263.479	3.80571
261.924	3.76002
261.863	3.75652
261.841	3.75477
261.725	3.75087
261.678	3.74911
261.443	3.74667
261.337	3.74569
261.152	3.73075
261.086	3.72381
260.851	3.71786
259.742	3.68774
259.683	3.68646
259.662	3.68601
259.547	3.67989
259.5	3.67683
259.269	3.67339
259.164	3.67166
259.049	3.66555
259.002	3.66249
258.726	3.65642
258.588	3.65338
258.474	3.6486
256.798	3.60121
256.797	3.59991
256.797	3.59945
256.679	3.59435
256.62	3.59204
256.409	3.5896
256.312	3.58861
256.196	3.58614
256.138	3.58515
256.026	3.58005
