Uv/Vis Spectrum: N-(3-Nitrophenyl)acetic acid amide
Formula: C8H8N2O3
CAS: 122-28-1
Melting point: 154-156
Instrument: SF-16
Origin: INSTITUTE OF ENERGY PROBLEMS OF CHEMICAL PHYSICS, RAS
Wavelength (nm)	Logarithm epsilon
207.344	3.772
207.844	3.788
208.344	3.803
208.844	3.818
209.344	3.831
209.844	3.844
210.344	3.856
210.844	3.867
211.344	3.878
211.844	3.888
212.344	3.898
212.844	3.908
213.344	3.917
213.844	3.926
214.344	3.935
214.844	3.944
215.344	3.953
215.844	3.962
216.344	3.971
216.844	3.98
217.344	3.989
217.844	3.998
218.344	4.008
218.844	4.017
219.344	4.027
219.844	4.037
220.344	4.046
220.844	4.057
221.344	4.067
221.844	4.077
222.344	4.088
222.844	4.098
223.344	4.109
223.844	4.12
224.344	4.13
224.844	4.141
225.344	4.152
225.844	4.163
226.344	4.174
226.844	4.184
227.344	4.195
227.844	4.205
228.344	4.216
228.844	4.226
229.344	4.236
229.844	4.245
230.344	4.254
230.844	4.263
231.344	4.272
231.844	4.28
232.344	4.288
232.844	4.295
233.344	4.302
233.844	4.309
234.344	4.315
234.844	4.32
235.344	4.325
235.844	4.329
236.344	4.333
236.844	4.336
237.344	4.339
237.844	4.341
238.344	4.343
238.844	4.344
238.954	4.346
239.454	4.345
239.954	4.344
240.454	4.344
240.954	4.343
241.454	4.342
241.954	4.341
242.454	4.34
242.954	4.338
243.454	4.336
243.954	4.333
244.454	4.33
244.954	4.327
245.454	4.323
245.954	4.318
246.454	4.312
246.954	4.306
247.454	4.299
247.954	4.291
248.454	4.283
248.954	4.273
249.454	4.263
249.954	4.252
250.454	4.24
250.954	4.227
251.454	4.214
251.954	4.199
252.454	4.184
252.954	4.169
253.454	4.153
253.954	4.136
254.454	4.119
254.954	4.102
255.454	4.085
255.954	4.068
256.454	4.051
256.954	4.034
257.1	4.031
257.6	4.013
258.1	3.997
258.6	3.982
259.1	3.969
259.6	3.957
260.1	3.947
260.6	3.937
261.1	3.928
261.6	3.919
262.1	3.911
262.6	3.903
263.1	3.895
263.6	3.888
264.1	3.88
264.6	3.873
265.1	3.865
265.6	3.857
266.1	3.849
266.6	3.841
267.1	3.833
267.6	3.825
268.1	3.817
268.6	3.808
269.1	3.8
269.6	3.792
270.1	3.784
270.6	3.776
271.1	3.767
271.6	3.76
272.1	3.752
272.6	3.744
272.815	3.743
273.315	3.733
273.815	3.725
274.315	3.718
274.815	3.712
275.315	3.707
275.815	3.702
276.315	3.697
276.815	3.693
277.315	3.689
277.815	3.684
278.315	3.679
278.815	3.673
279.315	3.667
279.815	3.66
280.315	3.652
280.815	3.643
281.315	3.634
281.815	3.623
282.315	3.612
282.815	3.599
283.315	3.585
283.815	3.571
284.315	3.556
284.815	3.54
285.315	3.524
285.815	3.507
286.315	3.49
286.815	3.472
287.315	3.455
287.815	3.439
288.315	3.423
288.815	3.407
289.315	3.394
289.815	3.381
290.315	3.371
290.815	3.363
291.051	3.356
291.551	3.345
292.051	3.335
292.551	3.326
293.051	3.317
293.551	3.308
294.051	3.301
294.551	3.293
295.051	3.286
295.551	3.279
296.051	3.273
296.551	3.266
297.051	3.26
297.551	3.255
298.051	3.249
298.551	3.243
299.051	3.237
299.551	3.231
300.051	3.226
300.551	3.22
301.051	3.214
301.551	3.207
302.051	3.201
302.551	3.194
303.051	3.187
303.551	3.18
304.051	3.173
304.551	3.165
305.051	3.157
305.551	3.149
306.051	3.141
306.551	3.133
307.051	3.124
307.551	3.116
308.027	3.108
308.527	3.1
309.027	3.092
309.527	3.084
310.027	3.076
310.527	3.068
311.027	3.06
311.527	3.052
312.027	3.044
312.527	3.036
313.027	3.028
313.527	3.02
314.027	3.012
314.527	3.003
315.027	2.995
315.527	2.988
316.027	2.98
316.527	2.972
317.027	2.965
317.527	2.958
318.027	2.952
318.527	2.946
319.027	2.941
319.527	2.937
320.027	2.933
320.527	2.93
321.027	2.929
321.527	2.929
322.027	2.93
322.466	2.932
322.966	2.937
323.466	2.941
323.966	2.946
324.466	2.951
324.966	2.956
325.466	2.961
325.966	2.966
326.466	2.971
326.966	2.976
327.466	2.98
327.966	2.984
328.466	2.987
328.966	2.99
329.466	2.992
329.966	2.993
330.466	2.994
330.966	2.993
331.466	2.992
