Uv/Vis Spectrum: Formamide, N-methyl-
Formula: C2H5NO
CAS: 123-39-7
Melting point: -3.8
Boiling point: 199.5
Instrument: n.i.g.
Origin: INSTITUTE OF ENERGY PROBLEMS OF CHEMICAL PHYSICS, RAS
Wavelength (nm)	Logarithm epsilon
180.57	3.59764
180.642	3.5815
180.653	3.59548
181.162	3.56683
181.165	3.57086
181.338	3.56037
181.339	3.56242
181.423	3.56033
181.599	3.55378
181.6	3.55586
182.471	3.54228
182.555	3.54009
182.82	3.53997
182.914	3.53749
183.084	3.53742
183.178	3.5352
183.263	3.53516
183.613	3.535
184.676	3.53671
185.026	3.53655
185.123	3.53895
185.474	3.53879
186.36	3.54724
186.445	3.5472
186.542	3.54927
186.712	3.5492
186.809	3.55153
186.894	3.55149
187.078	3.55559
187.162	3.55556
187.164	3.55789
187.345	3.55781
188.054	3.57027
188.238	3.5742
188.323	3.57417
188.324	3.5764
188.42	3.57636
188.506	3.57831
188.687	3.57823
189.574	3.58595
189.743	3.58589
189.841	3.58802
190.456	3.58778
191.516	3.58518
191.601	3.58514
191.695	3.58316
191.864	3.58309
191.958	3.58109
192.127	3.57881
192.128	3.58102
192.307	3.57874
192.391	3.57672
193.003	3.57224
193.1	3.57445
193.185	3.57441
193.362	3.57008
193.447	3.57005
193.529	3.56571
193.53	3.56799
193.624	3.56567
193.791	3.56152
193.885	3.55916
193.887	3.56148
193.97	3.55912
194.053	3.55702
194.67	3.54359
194.755	3.54355
195.016	3.53669
195.099	3.53448
195.101	3.53666
195.195	3.53443
195.445	3.52716
196.319	3.50069
196.321	3.50305
196.484	3.49317
196.486	3.49556
197.438	3.45338
197.44	3.45862
197.521	3.45037
197.522	3.45334
197.615	3.44766
198.216	3.42154
198.298	3.41543
198.3	3.41865
198.474	3.40625
198.475	3.40917
198.557	3.40325
198.559	3.40619
198.639	3.39687
198.642	3.4032
198.733	3.3938
198.734	3.39681
198.816	3.39034
199.51	3.35377
199.513	3.36035
199.676	3.34318
199.677	3.34656
199.771	3.34311
199.853	3.33578
199.854	3.33922
199.935	3.32832
199.936	3.33226
200.194	3.31339
200.195	3.31701
200.374	3.31326
200.458	3.30954
201.148	3.25587
201.152	3.2646
201.315	3.24682
201.493	3.2381
201.495	3.24666
201.574	3.22874
201.576	3.23313
201.668	3.22422
201.67	3.22865
201.751	3.21909
201.835	3.21447
201.836	3.21901
201.929	3.20979
202.353	3.17391
202.529	3.15777
202.531	3.16358
202.612	3.15245
202.708	3.15235
202.873	3.13538
202.875	3.14082
202.967	3.12976
202.969	3.13528
203.05	3.12338
203.052	3.12967
203.229	3.1175
203.231	3.12317
203.314	3.1174
203.396	3.105
203.398	3.11156
203.49	3.09897
203.491	3.10489
203.573	3.09287
203.656	3.08592
203.658	3.09277
203.75	3.07962
203.834	3.07324
203.835	3.07951
203.919	3.07313
204.001	3.05937
204.002	3.06585
204.179	3.05255
204.181	3.05913
204.264	3.05244
204.619	3.02279
204.704	3.02267
204.787	3.01538
204.881	3.00704
204.883	3.01524
205.048	2.99181
205.928	2.93001
206.012	2.92098
206.097	2.92082
206.189	2.90114
206.191	2.91158
206.274	2.90098
206.357	2.89131
206.453	2.89112
206.714	2.85945
206.797	2.8488
206.798	2.85926
206.967	2.84843
207.318	2.77561
207.321	2.79998
207.402	2.76104
207.403	2.77539
207.667	2.76033
207.75	2.74692
207.846	2.74665
208.012	2.7167
208.458	2.71538
208.538	2.66759
208.542	2.70047
208.634	2.66727
208.717	2.65059
208.898	2.64996
208.981	2.63259
209.16	2.61185
209.162	2.63194
209.33	2.61121
209.424	2.59213
210.911	2.4441
211.176	2.44263
211.26	2.41426
211.355	2.41369
211.79	2.4111
