Uv/Vis Spectrum: Benzene, dodecyl-
Formula: C18H30
CAS: 123-01-3
Melting point: 3
Boiling point: 328
Instrument: unknown
Origin: INSTITUTE OF ENERGY PROBLEMS OF CHEMICAL PHYSICS, RAS
Wavelength (nm)	Logarithm epsilon
240.81	2.121
240.85	2.123
240.9	2.124
240.94	2.124
240.98	2.125
241.02	2.127
241.06	2.127
241.11	2.128
241.15	2.13
241.19	2.13
241.23	2.131
241.42	2.137
241.66	2.143
241.87	2.148
242.08	2.155
242.29	2.16
242.5	2.164
242.71	2.167
242.92	2.172
243.13	2.176
243.34	2.18
243.54	2.183
243.75	2.185
243.96	2.187
244.16	2.189
244.4	2.192
244.58	2.194
244.82	2.196
245	2.198
245.19	2.201
245.44	2.205
245.67	2.209
245.88	2.213
246.09	2.217
246.3	2.221
246.51	2.226
246.72	2.231
246.93	2.238
247.15	2.246
247.36	2.252
247.57	2.258
247.75	2.264
247.99	2.268
248.2	2.272
248.42	2.275
248.62	2.276
248.83	2.277
249.05	2.277
249.26	2.278
249.47	2.278
249.68	2.277
249.89	2.274
250.09	2.273
250.31	2.273
250.52	2.274
250.73	2.277
250.95	2.28
251.16	2.286
251.37	2.292
251.58	2.298
251.79	2.307
252	2.314
252.21	2.32
252.4	2.326
252.64	2.332
252.85	2.337
253.06	2.341
253.27	2.345
253.48	2.348
253.69	2.353
253.9	2.354
254.11	2.356
254.32	2.355
254.54	2.353
254.75	2.352
254.96	2.349
255.17	2.346
255.38	2.343
255.59	2.341
255.8	2.338
256.01	2.334
256.22	2.33
256.44	2.327
256.63	2.325
256.86	2.323
257.07	2.323
257.28	2.327
257.49	2.333
257.7	2.341
257.91	2.349
258.12	2.359
258.34	2.365
258.55	2.371
258.76	2.378
258.97	2.38
259.18	2.382
259.39	2.38
259.6	2.379
259.81	2.376
260.03	2.372
260.24	2.37
260.45	2.369
260.66	2.369
260.87	2.369
261.08	2.372
261.29	2.376
261.5	2.378
261.71	2.378
261.93	2.374
262.14	2.359
262.35	2.343
262.56	2.327
262.77	2.311
262.98	2.298
263.19	2.285
263.4	2.276
263.61	2.268
263.83	2.261
264.02	2.259
264.25	2.261
264.46	2.265
264.67	2.27
264.88	2.274
265.02	2.274
265.23	2.272
265.37	2.267
265.54	2.26
265.7	2.254
265.9	2.246
266.06	2.236
266.23	2.225
266.4	2.216
266.57	2.202
266.74	2.189
266.91	2.177
267.08	2.165
267.12	2.162
267.19	2.161
267.25	2.162
267.42	2.18
267.58	2.2
267.75	2.213
267.94	2.227
268.09	2.235
268.23	2.241
268.4	2.247
268.58	2.252
268.77	2.253
269.02	2.253
269.21	2.251
269.35	2.245
269.44	2.24
269.61	2.225
269.78	2.208
269.95	2.184
270.12	2.151
270.29	2.111
270.46	2.084
270.62	2.057
270.79	2.032
270.96	2.015
271.13	1.989
271.3	1.97
271.47	1.954
271.64	1.935
271.81	1.916
271.98	1.902
272.15	1.881
272.3	1.865
272.48	1.846
272.65	1.832
272.82	1.821
272.99	1.807
273.16	1.793
273.33	1.778
273.5	1.765
273.67	1.749
273.83	1.736
274	1.729
274.17	1.719
274.34	1.705
274.51	1.697
274.68	1.686
274.85	1.675
275.02	1.667
275.19	1.659
275.35	1.651
275.52	1.642
275.69	1.634
275.82	1.626
276.03	1.612
276.17	1.606
276.37	1.598
276.54	1.594
