Uv/Vis Spectrum: Succinic acid imide
Formula: C4H5NO2
CAS: 123-56-8
Melting point: 126.5
Boiling point: 287 dec
Instrument: n.i.g.
Origin: INSTITUTE OF ENERGY PROBLEMS OF CHEMICAL PHYSICS, RAS
Wavelength (nm)	Logarithm epsilon
201.076	3.91273
201.457	3.87596
201.984	3.84143
201.984	3.84143
202.022	3.82857
202.061	3.81555
202.099	3.80224
202.099	3.80224
202.166	3.80222
202.235	3.8022
202.307	3.76302
202.307	3.76302
202.308	3.77632
202.31	3.78933
202.311	3.80218
202.311	3.80218
202.365	3.75989
202.423	3.75568
202.494	3.74877
202.59	3.73751
202.724	3.72026
202.906	3.69537
203.149	3.66122
203.465	3.61615
203.866	3.55853
204.364	3.48671
204.971	3.39906
204.971	3.39906
205.554	3.28514
205.715	3.24267
205.908	3.19648
206.124	3.15009
206.353	3.10701
206.585	3.07072
206.813	3.04473
207.026	3.03256
207.026	3.03256
207.574	2.9028
207.746	2.86735
207.949	2.83174
208.175	2.79601
208.418	2.76023
208.67	2.72442
208.923	2.68864
209.171	2.65294
209.407	2.61735
209.407	2.61735
209.757	2.59841
209.951	2.58025
211.506	2.47651
212.05	2.45577
212.682	2.43572
213.351	2.4161
214.005	2.39666
217.144	2.32357
217.976	2.30618
218.76	2.28728
220.531	2.23258
221.233	2.21712
222.04	2.19619
222.878	2.17183
223.673	2.14603
224.351	2.12082
226.213	2.07075
226.938	2.04948
227.684	2.02736
228.45	2.00752
229.234	1.9931
229.234	1.9931
229.419	1.9836
231.377	1.96567
232.089	1.96999
232.799	1.97344
233.477	1.9728
234.096	1.96489
237.174	1.96508
238.197	1.96548
239.125	1.95923
239.75	1.94517
239.75	1.94517
242.148	1.95046
242.79	1.9411
243.437	1.92896
244.082	1.91477
245.943	1.86743
246.517	1.85253
247.057	1.83932
247.057	1.83932
248.004	1.7988
248.625	1.77163
251.865	1.57602
252.309	1.53999
252.802	1.49989
253.336	1.45608
256.1	1.20029
256.602	1.14638
257.045	1.09802
257.432	1.0551
257.767	1.01751
258.052	0.985161
258.292	0.957947
258.49	0.935764
258.648	0.918513
258.771	0.906093
258.861	0.898402
258.861	0.898402
259.116	0.855222
259.489	0.812613
