Uv/Vis Spectrum: Phenol, 4-ethyl-
Formula: C8H10O
CAS: 123-07-9
Melting point: 45
Boiling point: 217.9
Instrument: unknown
Origin: INSTITUTE OF ENERGY PROBLEMS OF CHEMICAL PHYSICS, RAS
Wavelength (nm)	Logarithm epsilon
217.56	3.808
217.73	3.808
217.89	3.812
218.06	3.812
218.23	3.816
218.39	3.816
218.56	3.82
218.73	3.82
218.9	3.824
219.06	3.824
219.23	3.828
219.4	3.828
219.57	3.833
219.73	3.833
219.9	3.837
220.06	3.837
220.4	3.837
220.71	3.837
221.11	3.834
221.45	3.829
221.72	3.823
222	3.815
222.37	3.804
222.74	3.787
223.08	3.77
223.32	3.757
223.59	3.745
223.93	3.729
224.41	3.707
224.75	3.695
225.08	3.678
225.42	3.657
225.75	3.636
226.09	3.619
226.42	3.598
226.76	3.573
227.09	3.556
227.42	3.536
227.76	3.515
228.09	3.485
228.43	3.469
228.76	3.444
229.1	3.418
229.46	3.39
229.75	3.367
230.1	3.335
230.5	3.303
230.77	3.268
231.1	3.234
231.44	3.188
231.77	3.142
232.11	3.105
232.44	3.054
232.78	3.017
233.11	2.967
233.44	2.929
233.78	2.866
234.11	2.82
234.45	2.778
234.78	2.724
235.12	2.695
235.45	2.636
235.79	2.569
236.12	2.531
236.45	2.473
236.79	2.448
237.12	2.41
237.46	2.385
237.79	2.347
238.13	2.322
238.46	2.301
238.8	2.268
239.13	2.243
239.46	2.222
239.74	2.203
240.08	2.182
240.47	2.163
240.8	2.146
241.12	2.136
241.47	2.121
241.81	2.109
242.14	2.096
242.47	2.088
242.75	2.081
243.14	2.075
243.48	2.071
243.81	2.071
244.15	2.071
244.48	2.075
244.82	2.079
245.15	2.088
245.47	2.098
245.77	2.108
246.16	2.123
246.49	2.134
246.82	2.146
247.16	2.159
247.49	2.176
247.81	2.193
248.16	2.212
248.49	2.23
248.83	2.251
249.08	2.267
249.41	2.285
249.77	2.302
250.15	2.316
250.48	2.332
250.84	2.347
251.21	2.363
251.57	2.381
251.96	2.392
252.28	2.406
252.65	2.42
252.97	2.437
253.22	2.451
253.51	2.461
253.84	2.475
254.18	2.481
254.52	2.494
254.85	2.502
255.18	2.515
255.52	2.536
255.85	2.552
256.19	2.565
256.52	2.586
256.86	2.598
257.19	2.619
257.53	2.636
257.86	2.644
258.19	2.661
258.53	2.678
258.86	2.69
259.2	2.703
259.53	2.715
259.87	2.736
260.2	2.749
260.54	2.766
260.87	2.782
261.2	2.799
261.54	2.808
261.87	2.82
262.21	2.841
262.54	2.862
262.88	2.883
263.21	2.912
263.55	2.929
263.88	2.95
264.21	2.958
264.55	2.971
264.88	2.975
265.22	2.983
265.55	2.996
265.89	3
266.22	3.013
266.56	3.025
266.89	3.046
267.22	3.067
267.56	3.084
267.89	3.096
268.23	3.1
268.56	3.109
268.9	3.121
269.21	3.129
269.55	3.137
269.89	3.143
270.24	3.151
270.59	3.155
270.9	3.163
271.24	3.167
271.58	3.175
271.91	3.18
272.24	3.186
272.58	3.188
272.9	3.195
273.23	3.201
273.58	3.209
273.9	3.219
274.25	3.226
274.58	3.23
274.92	3.234
275.35	3.245
275.59	3.255
275.92	3.268
276.25	3.28
276.61	3.291
276.93	3.299
277.26	3.305
277.59	3.31
277.93	3.314
278.26	3.31
278.6	3.289
278.94	3.258
279.26	3.23
279.62	3.191
279.93	3.167
280.27	3.142
280.6	3.126
280.9	3.118
281.24	3.114
281.61	3.113
281.94	3.117
282.27	3.126
282.57	3.136
282.94	3.155
283.21	3.167
283.61	3.194
283.95	3.226
284.28	3.234
284.62	3.234
284.95	3.226
285.28	3.109
285.62	3.008
285.95	2.971
286.29	2.895
286.62	2.841
286.96	2.795
287.29	2.724
287.63	2.674
287.96	2.615
288.29	2.561
288.63	2.506
288.96	2.469
289.3	2.41
289.63	2.372
289.97	2.326
290.3	2.28
290.64	2.238
290.97	2.205
291.3	2.163
291.5	2.143
291.81	2.119
292.31	2.079
