Uv/Vis Spectrum: Pyrrolidine
Formula: C4H9N
CAS: 123-75-1
Melting point: -57.8
Boiling point: 86.5
Instrument: Fluorite prism vacuum spectrograph or Beckman spectrophotometer, Model DU
Origin: INSTITUTE OF ENERGY PROBLEMS OF CHEMICAL PHYSICS, RAS
Wavelength (nm)	Logarithm epsilon
241.303	1.99027
240.202	2.06662
239.155	2.12209
238.036	2.20585
238.036	2.20585
235.911	2.28031
233.953	2.33935
232.151	2.38754
230.493	2.42769
228.97	2.46167
227.573	2.4908
226.293	2.51602
225.123	2.53806
224.055	2.55749
223.083	2.57476
222.201	2.59025
221.401	2.60427
220.679	2.6171
220.679	2.6171
219.564	2.6344
218.409	2.65986
217.258	2.68955
216.156	2.72018
215.143	2.74922
214.258	2.77472
214.258	2.77472
213.539	2.80464
212.866	2.83316
212.234	2.8604
211.641	2.88644
211.081	2.91135
210.552	2.93521
210.049	2.95809
209.57	2.98004
209.111	3.00111
208.668	3.02136
208.238	3.04081
207.818	3.05952
207.405	3.07751
206.996	3.09483
206.587	3.11149
206.175	3.12754
205.758	3.14298
205.758	3.14298
205.335	3.15407
204.903	3.16534
204.46	3.17662
204.004	3.18781
203.533	3.19877
203.045	3.20941
202.538	3.21963
202.01	3.22933
201.459	3.23845
200.885	3.24691
200.283	3.25465
199.655	3.26158
198.996	3.26765
198.307	3.2728
197.586	3.27696
196.832	3.28006
196.042	3.28202
195.217	3.28276
194.355	3.28219
193.455	3.28021
193.455	3.28021
191.986	3.2697
190.867	3.26136
190.006	3.25466
189.319	3.24901
188.724	3.24379
188.141	3.23832
187.494	3.2319
186.708	3.22379
186.708	3.22379
185.693	3.22309
184.989	3.22607
184.11	3.23581
184.11	3.23581
183.644	3.24456
183.197	3.25343
182.765	3.26237
182.346	3.27132
181.939	3.28023
181.539	3.28907
181.145	3.2978
180.755	3.30637
180.365	3.31476
179.975	3.32292
179.582	3.33084
179.183	3.33849
178.777	3.34584
178.362	3.35287
177.934	3.35955
177.493	3.36588
177.037	3.37181
176.563	3.37735
176.07	3.38246
175.555	3.38713
175.018	3.39133
174.456	3.39506
173.868	3.39828
173.253	3.40098
172.609	3.40313
171.934	3.40472
171.227	3.40571
170.488	3.40607
170.488	3.40607
169.785	3.40353
169.085	3.40093
168.384	3.39825
168.384	3.39825
167.887	3.39416
167.379	3.38976
166.862	3.38518
166.338	3.38058
165.809	3.3761
165.276	3.37191
164.741	3.36818
164.207	3.36507
163.675	3.36276
163.146	3.36143
162.622	3.36124
162.105	3.36235
161.596	3.36492
161.097	3.36908
160.609	3.37493
160.609	3.37493
160.358	3.37977
160.141	3.384
159.937	3.38809
159.724	3.39254
159.48	3.39777
159.186	3.40423
158.82	3.41231
158.362	3.42234
157.794	3.43463
157.098	3.44939
