Uv/Vis Spectrum: Hydroquinone
Formula: C6H6O2
CAS: 123-31-9
Melting point: 172.3
Boiling point: 287
Instrument: n.i.g.
Origin: INSTITUTE OF ENERGY PROBLEMS OF CHEMICAL PHYSICS, RAS
Wavelength (nm)	Logarithm epsilon
210	4.07
211	4.06
212	4.04
213	4.02
214	4.02
215	3.99
216	3.96
217	3.93
218	3.93
219	3.92
220	3.88
221	3.85
222	3.84
223	3.83
224	3.78
225	3.75
226	3.71
227	3.71
228	3.68
229	3.63
230	3.59
231	3.6
232	3.56
233	3.46
234	3.46
235	3.4
236	3.33
237	3.34
238	3.21
239	3.14
240	3.09
241	2.96
242	2.96
243	2.81
244	2.71
245	2.57
246	2.55
247	2.34
248	2.38
249	2.32
250	2.01
251	1.82
252	1.81
253	1.81
254	1.81
255	1.81
256	1.81
257	1.82
258	1.84
259	1.91
260	1.9
261	1.94
262	2.03
263	2.03
264	2.09
265	2.13
266	2.15
267	2.21
268	2.27
269	2.27
270	2.34
271	2.4
272	2.4
273	2.47
274	2.52
275	2.53
276	2.58
277	2.64
278	2.64
279	2.71
280	2.77
281	2.77
282	2.86
283	2.89
284	2.89
285	2.97
286	3
287	3
288	3.08
289	3.09
290	3.19
291	3.19
292	3.23
293	3.27
294	3.28
295	3.29
296	3.32
297	3.33
298	3.34
299	3.34
300	3.34
301	3.34
302	3.33
303	3.32
304	3.3
305	3.28
306	3.25
307	3.16
308	3.07
309	2.99
310	2.88
311	2.86
312	2.73
313	2.74
314	2.59
315	2.51
316	2.38
317	2.32
318	2.2
319	2.19
