Uv/Vis Spectrum: 2,5-Dimethylpyrazine
Formula: C6H8N2
CAS: 123-32-0
Melting point: 15
Boiling point: 155
Instrument: Hilger Uvispek Spectrophotometer
Origin: INSTITUTE OF ENERGY PROBLEMS OF CHEMICAL PHYSICS, RAS
Wavelength (nm)	Logarithm epsilon
221.946	2.10005
222.372	2.07916
222.851	2.05051
225.061	1.97318
225.435	1.97242
225.82	1.97143
226.21	1.97033
226.604	1.97264
227.403	1.97438
227.736	1.97693
227.886	1.9825
229.686	2.02505
230.29	2.04285
230.899	2.06043
231.52	2.0779
232.848	2.14073
233.106	2.15522
233.37	2.16949
233.645	2.18364
235.245	2.24933
235.504	2.26445
235.768	2.27957
236.043	2.29468
237.365	2.35016
237.751	2.3756
238.022	2.38734
238.409	2.39544
239.744	2.46612
240.003	2.48159
240.268	2.49684
240.543	2.51197
241.625	2.57244
241.966	2.59097
242.319	2.60949
242.677	2.62802
243.888	2.6963
244.021	2.70739
244.159	2.71826
244.308	2.72903
245.763	2.79722
245.981	2.81332
246.209	2.8293
246.442	2.84507
247.773	2.91085
248.035	2.92941
248.302	2.94796
248.58	2.96651
249.911	3.03229
250.115	3.05729
250.258	3.0678
250.461	3.07283
251.518	3.13331
251.702	3.14846
251.887	3.16361
252.072	3.17876
253.278	3.24213
253.861	3.28176
254.175	3.29946
254.489	3.3104
255.777	3.35559
256.042	3.37071
256.318	3.38583
256.6	3.40094
258.43	3.47685
258.607	3.48364
258.784	3.49032
258.961	3.49679
260.535	3.56003
261.039	3.58308
261.672	3.60314
262.377	3.62269
262.456	3.6202
262.545	3.61772
262.64	3.61523
262.64	3.61523
265.192	3.64967
265.719	3.66406
266.246	3.67824
266.772	3.6923
268.566	3.72749
269.962	3.74207
271.707	3.73897
273.139	3.72049
275.672	3.70439
276.501	3.70268
277.122	3.69843
277.958	3.68592
279.685	3.61662
279.997	3.60066
280.319	3.58448
280.647	3.56819
281.127	3.52974
281.364	3.51884
281.605	3.50784
281.858	3.49661
282.32	3.43756
282.545	3.4179
282.727	3.40481
282.795	3.39175
283.24	3.34105
283.315	3.33098
283.526	3.31583
283.83	3.28735
284.548	3.20926
284.63	3.23422
284.631	3.16734
284.711	3.25907
285.337	3.10624
285.492	3.08754
285.647	3.06883
285.802	3.05013
286.748	2.98355
286.86	2.9711
286.978	2.95843
287.107	2.94564
288.202	2.88146
288.683	2.86361
289.175	2.84564
289.673	2.82746
291.162	2.79405
291.486	2.78047
292.003	2.76846
293.154	2.74772
295.687	2.73162
296.185	2.73326
296.694	2.73468
297.209	2.73599
299.519	2.74548
299.868	2.75222
300.216	2.75884
300.565	2.76524
303.515	2.80739
304.162	2.81843
304.808	2.82936
305.454	2.84008
307.628	2.86189
308.176	2.86449
308.735	2.86688
309.3	2.86915
312.008	2.91384
312.684	2.92229
313.37	2.93052
314.062	2.93864
314.062	2.93864
314.264	2.93695
314.476	2.93504
314.694	2.93302
318.504	2.92187
319.314	2.91473
319.974	2.90318
320.231	2.88053
320.231	2.88053
320.402	2.87984
320.573	2.87892
320.743	2.8779
320.743	2.8779
320.849	2.8576
320.96	2.83708
321.081	2.81644
322.201	2.80869
322.549	2.78912
323.208	2.77184
324.213	2.75694
324.213	2.75694
324.298	2.74047
324.417	2.73063
324.67	2.719
324.923	2.70075
324.928	2.706
324.932	2.71104
324.936	2.71596
324.936	2.71596
325.399	2.71334
325.862	2.71073
326.325	2.70811
326.325	2.70811
326.374	2.62418
326.484	2.69808
326.497	2.67632
327.036	2.51206
327.229	2.50671
327.353	2.49483
327.51	2.46626
327.984	2.41996
328.048	2.40816
328.117	2.39636
328.198	2.38456
328.667	2.33336
328.829	2.32248
328.991	2.3115
329.152	2.30031
329.346	2.24184
329.54	2.23629
329.662	2.22301
329.816	2.19064
330.017	2.14003
330.086	2.12661
330.165	2.11296
330.25	2.09921
330.956	2.03762
330.975	2.02337
331.005	2.009
331.04	1.99441
331.372	1.92559
331.513	1.91033
331.665	1.89506
331.822	1.8798
332.033	1.81347
332.096	1.80018
332.164	1.78678
332.243	1.77316
332.69	1.69645
332.699	1.70673
332.708	1.71691
332.717	1.72687
332.891	1.64583
332.997	1.62651
333.109	1.60697
333.231	1.58732
333.285	1.50829
333.346	1.49306
333.413	1.47782
333.49	1.46258
333.706	1.40117
333.725	1.38691
333.755	1.37254
333.79	1.35795
333.817	1.24851
333.831	1.26406
333.844	1.2794
333.858	1.29462
333.976	1.12136
333.992	1.10368
334.019	1.08601
334.02	1.17237
334.031	1.1845
334.041	1.1964
334.051	1.20819
334.052	1.06833
