Uv/Vis Spectrum: 1,4-Dioxane
Formula: C4H8O2
CAS: 123-91-1
Melting point: 11.8
Boiling point: 101.5
Instrument: Hilger fluorite prism spectrograph
Origin: INSTITUTE OF ENERGY PROBLEMS OF CHEMICAL PHYSICS, RAS
Wavelength (nm)	Logarithm epsilon
187.998	2.82747
187.959	2.77024
187.927	2.72249
187.898	2.68126
187.871	2.64362
187.843	2.60661
187.812	2.56729
187.777	2.52271
187.734	2.46993
187.683	2.40599
187.683	2.40599
187.662	2.4017
187.642	2.39751
187.624	2.3935
187.624	2.3935
187.558	2.39037
187.52	2.38751
187.477	2.38246
187.458	2.3875
187.379	2.49484
187.314	2.58308
187.261	2.65451
187.219	2.71143
187.185	2.75612
187.158	2.79089
187.137	2.81801
187.119	2.83979
187.102	2.85852
187.085	2.87648
187.066	2.89597
187.066	2.89597
187.047	2.89888
187.025	2.90179
187.003	2.9047
187.003	2.9047
186.957	2.90117
186.925	2.88555
186.89	2.85209
186.822	2.77209
186.822	2.77209
186.801	2.77028
186.79	2.76794
186.777	2.76304
186.747	2.76975
186.732	2.77054
186.717	2.77123
186.703	2.77174
186.703	2.77174
186.678	2.77711
186.661	2.78344
186.637	2.79618
186.637	2.79618
186.612	2.84044
186.584	2.90521
186.401	3.12504
186.401	3.12504
186.401	3.12885
186.4	3.13099
186.4	3.13322
186.399	3.13564
186.383	3.17086
186.381	3.12255
186.363	3.12026
186.358	3.19201
186.345	3.11807
186.345	3.11807
186.314	3.06448
186.284	3.01093
186.255	2.95746
186.226	2.9041
186.226	2.9041
186.172	2.87095
186.119	2.83798
186.067	2.80511
186.067	2.80511
186.042	2.8042
186.018	2.80339
185.993	2.80277
185.993	2.80277
185.985	2.78873
185.978	2.77469
185.973	2.76066
185.964	2.80268
185.941	2.87699
185.923	2.92855
185.902	2.97064
185.874	3.01656
185.831	3.0796
185.831	3.0796
185.751	3.15858
185.686	3.22575
185.635	3.27942
185.597	3.31792
185.57	3.33958
185.57	3.33958
185.551	3.34122
185.532	3.34286
185.512	3.3445
185.512	3.3445
185.505	3.35267
185.497	3.36103
185.488	3.36949
185.466	3.34097
185.452	3.3402
185.438	3.33962
185.424	3.33914
185.424	3.33914
185.383	3.31239
185.344	3.28583
185.305	3.25937
185.305	3.25937
185.286	3.25689
185.268	3.2546
185.25	3.25241
185.25	3.25241
185.248	3.23414
185.247	3.19762
185.247	3.21588
185.221	3.23789
185.2	3.25393
185.17	3.27655
185.133	3.32086
185.133	3.32086
185.082	3.35589
185.051	3.3722
185.014	3.38378
185.014	3.38378
184.863	3.38886
184.767	3.39364
184.646	3.40221
184.646	3.40221
184.612	3.39841
184.578	3.3948
184.546	3.32249
184.546	3.32249
184.546	3.39129
184.546	3.39129
184.545	3.34542
184.545	3.36835
184.517	3.2948
184.488	3.26711
184.458	3.23941
184.458	3.23941
184.434	3.23681
184.411	3.2343
184.389	3.23199
184.389	3.23199
184.384	3.2236
184.38	3.21541
184.377	3.20732
184.357	3.23529
184.316	3.26301
184.243	3.32455
184.159	3.39717
184.086	3.45819
184.054	3.51296
184.05	3.5036
184.048	3.49425
184.046	3.4849
184.046	3.4849
184.001	3.48137
183.954	3.47401
183.895	3.45953
183.82	3.44387
183.82	3.44387
183.816	3.43622
183.813	3.42856
183.811	3.42091
183.791	3.44888
183.728	3.46466
183.654	3.48587
183.559	3.50975
183.559	3.50975
183.48	3.52184
183.401	3.53403
183.322	3.5464
183.322	3.5464
183.269	3.5642
183.217	3.5822
183.165	3.60028
183.165	3.60028
183.147	3.60067
183.129	3.60115
183.109	3.60181
183.109	3.60181
183.108	3.60649
183.107	3.61127
183.106	3.61624
183.081	3.60172
183.065	3.60042
183.051	3.59921
183.037	3.59819
183.037	3.59819
182.929	3.55722
182.861	3.53581
182.824	3.52195
182.791	3.53416
182.75	3.55369
182.69	3.59204
182.615	3.63384
182.615	3.63384
182.597	3.63422
182.577	3.6347
182.556	3.63536
182.556	3.63536
182.555	3.64004
182.554	3.64482
182.553	3.64979
182.473	3.62109
182.466	3.62574
182.461	3.63039
182.457	3.63505
182.457	3.63505
182.418	3.63693
182.38	3.63862
182.342	3.64022
182.342	3.64022
182.308	3.63885
182.275	3.63759
182.243	3.63652
182.243	3.63652
182.21	3.62877
182.179	3.62103
182.148	3.61329
182.148	3.61329
182.114	3.61191
182.081	3.61053
182.05	3.60916
182.05	3.60916
181.953	3.62327
181.903	3.6328
181.857	3.64594
181.857	3.64594
181.816	3.65048
181.777	3.65503
181.739	3.65958
181.739	3.65958
181.571	3.63879
181.486	3.62938
181.408	3.62331
181.408	3.62331
181.331	3.62306
181.256	3.62283
181.181	3.62259
181.181	3.62259
181.092	3.63111
180.96	3.64581
180.821	3.66011
180.821	3.66011
180.722	3.66447
180.624	3.66883
180.525	3.67319
180.525	3.67319
180.361	3.67395
180.199	3.67471
180.037	3.67548
180.037	3.67548
179.991	3.67066
179.946	3.66584
179.9	3.66102
179.9	3.66102
179.515	3.65966
179.347	3.65813
179.251	3.65513
179.251	3.65513
179.177	3.65743
179.104	3.65964
179.03	3.66165
179.03	3.66165
178.93	3.65867
178.869	3.65572
178.798	3.65028
178.798	3.65028
178.602	3.64327
178.376	3.63295
178.217	3.62378
178.217	3.62378
177.736	3.6194
177.542	3.6169
177.47	3.61414
177.47	3.61414
177.391	3.59986
177.312	3.58559
177.234	3.57132
177.234	3.57132
177.097	3.55387
176.966	3.53578
176.829	3.51861
176.829	3.51861
176.8	3.52318
176.773	3.52777
176.746	3.53235
176.746	3.53235
176.701	3.52884
176.64	3.52093
176.51	3.50184
176.51	3.50184
176.417	3.50154
176.323	3.50123
176.23	3.50092
176.23	3.50092
176.175	3.49688
176.101	3.4875
175.942	3.46472
175.917	3.46251
175.829	3.46447
175.74	3.46661
175.651	3.46885
175.572	3.46518
175.44	3.43981
175.308	3.41463
175.176	3.38954
175.176	3.38954
175.098	3.37739
174.924	3.3451
174.515	3.27266
174.515	3.27266
174.423	3.26115
174.198	3.22786
173.691	3.1535
173.691	3.1535
173.653	3.14573
173.616	3.13796
173.58	3.13019
173.58	3.13019
173.344	3.09084
173.173	3.05991
172.93	3.01713
172.93	3.01713
172.792	2.98507
172.68	2.96178
172.499	2.92731
172.499	2.92731
172.388	2.90069
172.219	2.86368
171.984	2.81086
171.984	2.81086
171.898	2.78664
171.733	2.74346
171.597	2.70377
171.597	2.70377
171.548	2.69396
171.5	2.68434
171.453	2.67482
171.453	2.67482
171.268	2.62986
170.926	2.55009
170.716	2.49769
170.716	2.49769
170.61	2.47896
170.479	2.45023
170.415	2.43165
170.415	2.43165
170.257	2.39705
170.041	2.34771
169.793	2.29524
169.793	2.29524
169.757	2.28401
169.698	2.26807
169.655	2.25228
169.655	2.25228
169.443	2.20836
169.302	2.17725
169.109	2.13226
169.109	2.13226
168.909	2.08634
168.582	2.00768
168.391	1.96405
168.391	1.96405
168.124	1.90029
167.906	1.85011
167.81	1.82604
167.81	1.82604
167.771	1.81987
167.69	1.8032
