Uv/Vis Spectrum: 2,4-Pentanedione
Formula: C5H8O2
CAS: 123-54-6
Melting point: -23
Boiling point: 138
Instrument: Cary 219
Origin: INSTITUTE OF ENERGY PROBLEMS OF CHEMICAL PHYSICS, RAS
Wavelength (nm)	Logarithm epsilon
287.21	4.30615
287.459	4.30673
287.484	4.30939
287.732	4.30997
287.747	4.31152
288.026	4.31208
288.05	4.31472
288.299	4.31528
288.314	4.31682
288.562	4.31738
288.577	4.31897
288.825	4.31947
288.841	4.32105
289.114	4.32103
289.129	4.32261
289.377	4.3231
289.392	4.32467
289.64	4.32516
289.655	4.32672
289.929	4.32671
289.939	4.32777
290.187	4.32825
290.197	4.32931
290.44	4.3293
290.45	4.33029
290.729	4.33083
290.739	4.33182
290.982	4.33181
290.987	4.33236
291.235	4.33284
291.24	4.33334
291.519	4.33388
291.524	4.33437
291.767	4.33436
291.772	4.33485
292.268	4.33587
292.273	4.33635
292.546	4.33634
294.547	4.33577
294.825	4.33625
294.83	4.33674
295.073	4.33673
296.532	4.3306
296.755	4.32854
296.77	4.33003
296.978	4.32642
296.993	4.32798
297.226	4.32385
297.246	4.32591
297.443	4.32119
297.464	4.32327
297.666	4.3191
297.682	4.32068
297.894	4.3175
297.91	4.31909
298.137	4.31429
298.163	4.31698
298.35	4.31107
298.376	4.31377
298.568	4.3084
298.588	4.31054
298.816	4.30565
298.837	4.30787
299.034	4.30295
299.054	4.30511
299.252	4.30017
299.272	4.30241
299.48	4.29523
299.521	4.29962
299.698	4.29239
299.723	4.29521
299.936	4.29184
300.559	4.27635
300.762	4.27169
300.797	4.27577
300.985	4.26577
301.03	4.27111
301.182	4.26035
301.223	4.26518
301.385	4.25552
301.421	4.25976
301.608	4.24937
301.653	4.25485
301.811	4.24434
301.846	4.24869
302.003	4.23803
302.049	4.24373
302.226	4.23163
302.272	4.23741
302.419	4.22513
302.464	4.231
302.627	4.22053
302.657	4.22449
302.854	4.21451
302.895	4.21988
303.047	4.20775
303.093	4.21385
303.255	4.20296
303.285	4.20708
303.448	4.19601
303.493	4.20228
303.675	4.18964
303.716	4.19532
303.873	4.18317
303.914	4.18894
304.076	4.17739
304.111	4.18246
304.294	4.16931
304.344	4.17668
304.496	4.16326
304.532	4.16849
304.719	4.16024
304.735	4.16251
305.109	4.14076
305.12	4.14238
305.312	4.13439
305.348	4.13998
305.54	4.12704
305.581	4.1336
305.738	4.11956
305.778	4.12623
305.945	4.11368
305.976	4.11874
306.158	4.10855
306.184	4.11285
306.387	4.10084
306.427	4.1077
306.584	4.09289
306.624	4.09988
306.797	4.0875
306.822	4.09202
307.035	4.08117
307.065	4.08662
307.237	4.07374
307.273	4.08028
307.435	4.06539
307.476	4.07283
307.668	4.05768
307.703	4.06435
307.871	4.04996
307.906	4.05674
308.064	4.04005
308.109	4.04888
308.261	4.03089
308.301	4.03894
308.484	4.02053
308.53	4.02988
308.682	4.01095
308.722	4.0195
308.885	4.00233
308.92	4.00989
309.108	3.99126
309.153	4.00113
309.285	3.97642
309.345	3.99002
309.447	3.95742
309.523	3.97514
309.61	3.92986
309.715	3.95608
309.833	3.85689
309.984	3.9004
310.325	3.84923
310.34	3.85388
310.477	3.82019
310.562	3.84751
310.659	3.79968
310.715	3.81856
310.887	3.78385
310.927	3.79797
311.08	3.76538
311.125	3.78185
311.277	3.74798
311.317	3.76329
311.505	3.72985
311.546	3.74604
312.372	3.67068
312.58	3.65395
312.61	3.66837
312.827	3.6414
312.848	3.65125
313.04	3.62599
313.066	3.63893
313.263	3.61549
313.278	3.62343
313.481	3.6021
313.501	3.61287
314.879	3.53002
