Uv/Vis Spectrum: Benzaldehyde, 4-methoxy-
Formula: C8H8O2
CAS: 123-11-5
Melting point: 2.5
Boiling point: 247
Instrument: Beckman DU
Origin: INSTITUTE OF ENERGY PROBLEMS OF CHEMICAL PHYSICS, RAS
Wavelength (nm)	Logarithm epsilon
214.15	4.024
214.32	4.027
214.49	4.031
214.66	4.034
214.83	4.034
215	4.037
215.16	4.041
215.33	4.041
215.67	4.051
216.68	4.082
217.69	4.105
218.7	4.116
219.71	4.119
220.72	4.112
221.74	4.099
222.75	4.088
223.76	4.071
224.77	4.044
225.78	4.014
226.79	3.969
227.8	3.915
228.81	3.837
229.82	3.738
230.83	3.636
231.84	3.527
232.86	3.405
233.87	3.252
234.88	3.119
235.89	3.092
236.9	3.085
237.91	3.085
238.92	3.099
239.93	3.119
240.94	3.15
241.95	3.184
242.97	3.225
243.98	3.269
244.99	3.31
246	3.354
247.01	3.398
248.02	3.442
249.03	3.49
250.04	3.534
251.05	3.571
252.06	3.612
253.07	3.653
254.09	3.691
255.1	3.735
256.11	3.772
257.12	3.806
258.13	3.844
259.14	3.884
260.15	3.918
261.16	3.949
262.17	3.983
263.18	4.007
264.2	4.037
265.21	4.061
266.22	4.082
267.23	4.099
268.24	4.112
269.25	4.126
270.26	4.136
271.27	4.146
272.28	4.16
273.29	4.163
274.3	4.163
275.32	4.167
276.33	4.17
277.34	4.174
278.35	4.174
279.36	4.18
280.37	4.18
281.38	4.18
282.39	4.174
283.4	4.167
284.41	4.163
285.43	4.16
286.44	4.15
287.45	4.136
288.46	4.119
289.47	4.099
290.48	4.071
291.49	4.051
292.5	4.034
293.51	4.02
294.52	3.99
295.53	3.956
296.55	3.922
297.56	3.884
298.57	3.84
299.58	3.789
300.59	3.731
301.6	3.657
302.61	3.588
303.62	3.507
304.63	3.429
305.64	3.34
306.65	3.259
307.67	3.174
308.68	3.085
309.69	2.99
310.7	2.912
311.71	2.833
312.72	2.755
313.73	2.684
314.74	2.619
315.75	2.558
316.76	2.5
317.78	2.449
318.77	2.406
319.75	2.363
320.73	2.321
321.71	2.269
322.83	2.225
323.84	2.184
324.85	2.143
325.86	2.102
326.87	2.072
327.88	2.038
328.9	2.01
329.91	1.98
330.92	1.949
331.93	1.925
332.94	1.905
333.95	1.878
334.96	1.854
335.97	1.827
336.98	1.806
337.99	1.782
339.01	1.755
340.02	1.735
341.03	1.708
342.04	1.684
343.05	1.657
344.06	1.633
345.07	1.606
346.08	1.582
347.09	1.551
348.1	1.524
349.11	1.49
350.13	1.459
351.14	1.429
352.15	1.388
353.16	1.35
354.17	1.316
355.18	1.269
356.19	1.221
357.2	1.17
358.21	1.126
