Uv/Vis Spectrum: Myrcene
Formula: C10H16
CAS: 123-35-3
Boiling point: 167
Instrument: Beckman DU
Origin: INSTITUTE OF ENERGY PROBLEMS OF CHEMICAL PHYSICS, RAS
Wavelength (nm)	Logarithm epsilon
221.356	5.08253
225.543	5.09422
225.837	5.09927
226.33	5.09421
226.629	5.0949
226.631	5.09541
226.633	5.0959
226.635	5.09638
226.637	5.09673
226.637	5.09673
227.058	5.08268
227.121	5.0942
227.121	5.0942
227.338	5.07944
227.367	5.09359
227.612	5.07616
227.612	5.09297
227.878	5.07286
228.138	5.06953
228.39	5.06616
228.635	5.06277
228.871	5.05935
229.099	5.05589
229.318	5.0524
229.528	5.04887
229.728	5.04532
229.919	5.04173
230.1	5.0381
232.195	4.97819
232.32	4.97421
232.445	4.97019
232.571	4.96613
232.696	4.96203
232.821	4.9579
232.946	4.95372
233.07	4.9495
233.194	4.94524
233.316	4.94093
233.437	4.93658
233.557	4.93219
233.675	4.92775
233.792	4.92326
233.907	4.91873
234.019	4.91415
234.13	4.90951
234.238	4.90483
234.343	4.90009
234.445	4.8953
234.545	4.89046
234.641	4.88556
234.734	4.8806
234.824	4.87558
234.91	4.87051
234.992	4.86537
235.069	4.86017
235.143	4.8549
235.212	4.84957
235.276	4.84417
235.336	4.8387
235.391	4.83315
235.44	4.82754
236.184	4.77019
236.283	4.76375
236.383	4.75722
236.482	4.75059
236.582	4.74385
236.681	4.737
236.78	4.73005
236.88	4.72298
236.979	4.7158
237.079	4.70849
237.178	4.70106
237.278	4.6935
237.377	4.68581
237.476	4.67798
237.576	4.67
237.675	4.66187
237.775	4.65359
237.874	4.64515
237.974	4.63654
238.073	4.62775
238.172	4.61878
238.272	4.60963
238.371	4.60027
238.471	4.59071
238.57	4.58094
238.669	4.57094
238.769	4.5607
238.868	4.55022
238.968	4.53948
239.067	4.52846
239.166	4.51716
239.266	4.50555
239.365	4.49363
239.465	4.48137
239.564	4.46875
239.663	4.45576
239.763	4.44237
241.464	4.25417
241.698	4.23098
241.943	4.20646
242.196	4.18046
242.451	4.1528
242.703	4.12326
242.949	4.09158
243.183	4.05742
243.401	4.02037
244.906	3.78715
245.301	3.71552
246.466	3.62343
247.972	3.52025
249.588	3.44597
249.588	3.44597
