Uv/Vis Spectrum: Benzaldehyde, 4-hydroxy-
Formula: C7H6O2
CAS: 123-08-0
Melting point: 117
Instrument: n.i.g.
Origin: INSTITUTE OF ENERGY PROBLEMS OF CHEMICAL PHYSICS, RAS
Wavelength (nm)	Logarithm epsilon
118.86	0.814154
118.697	0.840376
118.553	0.867244
118.409	0.893468
118.265	0.914576
118.103	0.936323
117.96	0.946555
117.817	0.967665
117.657	0.994528
117.515	1.02651
117.374	1.04251
117.215	1.05274
117.074	1.07448
116.933	1.09559
116.793	1.10583
116.636	1.12757
116.496	1.13781
116.357	1.1538
116.201	1.17491
116.062	1.18067
115.924	1.20177
115.769	1.22288
115.632	1.23887
115.494	1.24975
115.341	1.28685
115.204	1.29708
115.068	1.31883
114.932	1.33993
114.78	1.36104
114.644	1.37703
114.51	1.39814
114.358	1.41925
114.224	1.441
114.09	1.45123
113.94	1.47298
113.807	1.49409
113.674	1.51519
113.393	1.54206
113.261	1.55229
113.129	1.57916
112.982	1.59515
112.851	1.60538
112.72	1.62649
112.574	1.63736
112.444	1.65335
112.314	1.67958
112.168	1.69046
112.039	1.70645
111.911	1.72755
111.782	1.74866
111.638	1.77041
111.51	1.7864
111.382	1.80239
111.112	1.80751
110.986	1.83949
110.844	1.84972
110.718	1.87083
110.592	1.88682
110.451	1.90281
110.326	1.9188
110.201	1.9348
110.076	1.95079
109.936	1.97765
109.812	1.98277
109.689	2.01475
109.55	2.02498
109.427	2.04673
109.304	2.05697
109.166	2.07807
109.044	2.09982
108.922	2.11006
108.785	2.13116
108.664	2.15291
108.543	2.16315
108.422	2.19513
108.286	2.206
108.166	2.22199
108.046	2.23223
107.911	2.25909
107.791	2.2802
107.672	2.29619
107.539	2.3173
107.42	2.33841
107.302	2.3544
107.169	2.38126
107.051	2.40749
106.933	2.42348
106.816	2.45034
106.684	2.47145
106.568	2.48232
106.451	2.51367
106.32	2.52454
106.204	2.5514
106.089	2.57251
105.959	2.59362
105.844	2.61473
105.729	2.64671
105.614	2.66782
105.485	2.69468
105.371	2.70556
105.257	2.73178
105.129	2.76376
105.016	2.774
104.903	2.82197
104.776	2.83796
104.663	2.86483
104.551	2.89681
104.425	2.92815
104.313	2.94414
104.201	2.98124
104.09	3.01322
103.965	3.04009
103.854	3.0823
103.743	3.11428
103.619	3.15714
103.509	3.18848
103.399	3.22046
103.276	3.27355
103.166	3.31065
103.057	3.33752
102.935	3.36374
102.826	3.40148
102.718	3.43858
102.609	3.47056
102.488	3.50766
102.38	3.53389
102.272	3.54988
102.152	3.58186
102.045	3.60872
101.938	3.63495
101.818	3.65094
101.712	3.67716
101.606	3.69891
101.5	3.72002
101.381	3.72514
101.275	3.74625
101.17	3.76799
101.052	3.7891
100.947	3.81021
100.843	3.82108
100.725	3.83707
100.621	3.8633
100.517	3.87417
100.401	3.88441
100.297	3.89528
100.194	3.90615
100.091	3.92214
99.9755	3.94837
99.873	3.95349
99.7707	3.96436
99.6558	3.96948
99.5539	3.99123
99.4522	4.00146
99.3381	4.01745
99.2369	4.02832
99.1358	4.03856
99.0224	4.05455
98.9218	4.06031
98.8214	4.07054
98.7212	4.08141
98.6088	4.08653
98.509	4.09165
98.2977	4.10764
98.1986	4.1134
98.0996	4.11851
97.5835	4.1505
97.4858	4.15561
97.2789	4.16073
97.1818	4.16648
96.9761	4.1716
96.7834	4.17672
96.6753	4.18248
96.3882	4.19271
96.0909	4.19783
95.9844	4.20358
95.7955	4.2087
95.6896	4.21382
95.3967	4.21957
95.3033	4.22469
95.1171	4.22981
94.8277	4.23557
94.7239	4.24068
94.3453	4.2458
94.0605	4.25156
93.4961	4.25667
93.1272	4.25156
92.5739	4.2458
92.3982	4.24068
92.2123	4.23557
92.0271	4.22981
91.9402	4.21957
91.4008	4.2087
91.2296	4.20358
90.9632	4.19783
90.783	4.19271
90.2571	4.16648
89.5722	4.12875
89.3154	4.10764
89.2336	4.10252
89.1417	4.09165
89.0602	4.08653
88.8874	4.08141
88.554	4.05455
88.3932	4.03856
88.303	4.03344
88.223	4.02832
88.1432	4.01745
88.0535	4.01233
87.8945	3.99634
87.8054	3.98547
87.7263	3.97523
87.6473	3.96948
87.5685	3.96436
87.48	3.94837
87.4015	3.9375
87.3231	3.93238
87.2351	3.92214
87.157	3.90615
86.9915	3.9004
86.8364	3.87929
86.7494	3.86905
86.6721	3.8633
86.5951	3.85306
86.5181	3.84219
86.3551	3.82108
86.2786	3.80509
86.1927	3.7891
86.0403	3.77311
85.8791	3.752
85.8034	3.73601
85.6431	3.72002
85.5678	3.70915
85.4927	3.69315
85.4083	3.68292
85.3335	3.66693
85.2587	3.65094
85.1749	3.64006
85.1004	3.62983
85.0261	3.61384
84.9427	3.60297
84.8686	3.58697
84.7947	3.57674
84.721	3.56075
84.6381	3.54988
84.5646	3.53964
84.4912	3.52877
84.4088	3.51789
84.3357	3.50766
84.2628	3.49167
84.1808	3.4808
84.1081	3.45969
84.0355	3.44881
83.954	3.4437
83.8817	3.42771
83.8095	3.41747
83.7374	3.4066
83.6565	3.39572
83.5847	3.38549
83.513	3.3695
83.4325	3.36374
83.3611	3.35351
83.2898	3.33752
83.2097	3.3324
83.1387	3.32664
83.0677	3.31641
82.9174	3.29466
82.8469	3.28954
82.7764	3.27931
82.6974	3.26844
82.5571	3.24733
82.4785	3.23134
82.339	3.22558
82.1913	3.22046
82.122	3.20447
82.0528	3.19424
81.9061	3.17825
81.8373	3.17249
81.76	3.16226
81.6229	3.14627
