Uv/Vis Spectrum: 2-Chloro-1,3-butadiene
Formula: C4H5Cl
CAS: 126-99-8
Boiling point: 59.4
Instrument: SF-4
Origin: INSTITUTE OF ENERGY PROBLEMS OF CHEMICAL PHYSICS, RAS
Wavelength (nm)	Logarithm epsilon
202.03	3.79
202.21	3.794
202.37	3.798
202.54	3.802
202.69	3.808
203.06	3.823
203.4	3.839
203.74	3.856
204.08	3.872
204.42	3.886
204.76	3.901
205.1	3.916
205.44	3.932
205.77	3.945
206.11	3.959
206.45	3.973
206.79	3.987
207.13	4
207.47	4.011
207.81	4.023
208.15	4.036
208.49	4.047
208.83	4.061
209.17	4.074
209.51	4.086
209.85	4.099
210.19	4.11
210.53	4.124
210.87	4.139
211.21	4.15
211.55	4.157
211.89	4.17
212.23	4.18
212.57	4.191
212.91	4.201
213.25	4.212
213.59	4.221
213.93	4.229
214.27	4.236
214.61	4.243
214.95	4.248
215.29	4.252
215.63	4.257
215.97	4.262
216.31	4.265
216.65	4.268
216.99	4.27
217.32	4.273
217.66	4.276
218	4.278
218.34	4.28
218.68	4.284
219.02	4.286
219.36	4.29
219.7	4.294
220.04	4.298
220.38	4.301
220.72	4.306
221.06	4.31
221.4	4.316
221.74	4.32
222.08	4.325
222.42	4.328
222.76	4.331
223.1	4.332
223.44	4.33
223.78	4.324
224.12	4.316
224.46	4.307
224.8	4.301
225.14	4.294
225.48	4.287
225.82	4.279
226.16	4.27
226.5	4.261
226.84	4.256
227.18	4.25
227.52	4.243
227.86	4.239
228.2	4.235
228.54	4.23
228.87	4.226
229.21	4.222
229.55	4.219
229.89	4.211
230.23	4.206
230.57	4.196
230.91	4.185
231.25	4.174
231.59	4.164
231.93	4.147
232.27	4.135
232.61	4.123
232.95	4.108
233.29	4.094
233.63	4.079
233.97	4.062
234.31	4.045
234.65	4.027
234.99	4.003
235.33	3.983
235.67	3.963
236.01	3.942
236.35	3.918
236.69	3.893
237.03	3.867
237.37	3.839
237.71	3.815
238.05	3.778
238.39	3.745
238.73	3.719
239.07	3.684
