Uv/Vis Spectrum: Tetrachloroethylene
Formula: C2Cl4
CAS: 127-18-4
Melting point: - 22.3
Boiling point: 121.3
Instrument: Beckman DU
Origin: INSTITUTE OF ENERGY PROBLEMS OF CHEMICAL PHYSICS, RAS
Wavelength (nm)	Logarithm epsilon
263.16	1.648
263.3	1.626
263.37	1.617
263.44	1.608
263.51	1.598
263.58	1.59
263.68	1.578
263.76	1.567
263.86	1.553
263.98	1.538
264.13	1.519
264.26	1.504
264.4	1.488
264.52	1.476
264.62	1.466
264.72	1.458
264.83	1.447
264.97	1.434
265.11	1.42
265.29	1.405
265.45	1.392
265.61	1.378
265.81	1.361
265.99	1.347
266.16	1.331
266.38	1.31
266.52	1.295
266.66	1.279
266.87	1.254
267.08	1.232
267.26	1.213
267.51	1.187
267.71	1.166
267.97	1.138
268.22	1.109
268.51	1.08
268.73	1.054
268.99	1.023
269.4	0.977
269.81	0.938
270.24	0.893
270.68	0.844
271.2	0.791
271.71	0.732
272.3	0.668
273.04	0.592
273.86	0.513
274.73	0.424
275.73	0.329
276.8	0.222
278.01	0.099
279.26	-0.037
280.51	-0.194
