Uv/Vis Spectrum: 1,3-Dichlorotetrafluoroacetone
Formula: C3Cl2F4O
CAS: 127-21-9
Instrument: n.i.g.
Origin: INSTITUTE OF ENERGY PROBLEMS OF CHEMICAL PHYSICS, RAS
Wavelength (nm)	Logarithm epsilon
227.901	3.57745
229.008	3.57347
229.951	3.57186
230.988	3.57343
232.381	3.57887
234.391	3.58878
237.277	3.60355
237.277	3.60355
238.732	3.63574
240.182	3.67031
241.634	3.70592
243.099	3.74153
244.583	3.77638
244.583	3.77638
246.748	3.84055
247.876	3.87191
248.656	3.88581
248.656	3.88581
249.675	3.92559
250.676	3.96251
251.661	3.997
252.629	4.0294
253.58	4.05998
254.515	4.08896
255.434	4.11654
256.336	4.14287
257.221	4.16808
258.09	4.19228
258.942	4.21558
259.779	4.23805
260.599	4.25976
261.403	4.28079
262.19	4.30119
262.962	4.32101
263.717	4.34028
264.457	4.35906
265.18	4.37737
265.887	4.39526
266.579	4.41274
267.254	4.42985
267.914	4.4466
268.558	4.46302
268.558	4.46302
269.125	4.48036
269.749	4.49894
270.418	4.51817
271.117	4.53753
271.834	4.55659
272.554	4.57499
273.264	4.59242
273.952	4.60863
274.603	4.6234
275.203	4.63654
275.74	4.64787
276.2	4.65722
276.569	4.66441
276.834	4.66925
276.981	4.67153
276.981	4.67153
277.079	4.67467
277.305	4.67887
277.563	4.68504
277.563	4.68504
278.305	4.69519
279.008	4.70524
279.675	4.71518
280.311	4.72498
280.92	4.73461
281.505	4.74407
282.072	4.75333
282.072	4.75333
283.795	4.77531
284.96	4.78983
285.688	4.79885
286.103	4.80396
286.326	4.80651
286.48	4.8078
286.48	4.8078
287.019	4.81696
287.411	4.82393
287.768	4.83106
288.204	4.84053
288.832	4.85431
288.832	4.85431
289.584	4.86106
290.414	4.86722
291.307	4.87293
292.246	4.87828
293.215	4.8834
294.198	4.88839
295.179	4.89333
296.142	4.89833
297.072	4.90348
297.072	4.90348
297.606	4.91101
298.217	4.91838
298.92	4.92542
299.73	4.93199
300.664	4.93797
301.739	4.94321
301.739	4.94321
302.823	4.94275
303.724	4.94054
304.47	4.93688
305.087	4.93208
305.603	4.92642
306.045	4.92021
306.44	4.91377
306.816	4.90745
307.201	4.90161
307.621	4.89663
307.621	4.89663
308.06	4.89648
308.498	4.89628
308.937	4.89606
308.937	4.89606
310.279	4.90423
311.521	4.90781
313.591	4.9086
313.591	4.9086
314.248	4.90419
314.909	4.89968
315.579	4.8951
315.579	4.8951
315.772	4.88795
315.966	4.88067
316.164	4.87327
316.366	4.86573
316.577	4.85806
316.797	4.85024
317.03	4.84227
317.277	4.83416
317.54	4.82589
317.823	4.81746
318.126	4.80886
318.452	4.80009
318.804	4.79114
319.184	4.78201
319.184	4.78201
319.614	4.77744
320.018	4.7725
320.57	4.76537
321.446	4.7541
322.819	4.73645
322.819	4.73645
323.832	4.73325
324.71	4.73242
325.545	4.73138
326.431	4.72754
327.461	4.71816
327.461	4.71816
327.903	4.70552
328.348	4.6925
328.796	4.67907
329.246	4.66517
329.697	4.65078
329.697	4.65078
329.912	4.63691
330.128	4.62259
330.344	4.60778
330.56	4.59244
330.776	4.57654
330.992	4.56004
331.208	4.54289
331.423	4.52503
331.639	4.5064
331.639	4.5064
332.115	4.48644
332.59	4.46548
333.065	4.44341
333.54	4.42006
333.54	4.42006
334.366	4.40351
335.271	4.38698
336.237	4.37032
337.248	4.35336
338.288	4.3359
339.339	4.31772
340.385	4.29855
341.409	4.27808
342.396	4.25595
342.396	4.25595
342.983	4.23017
343.513	4.20147
344.003	4.16967
344.468	4.13458
344.923	4.09596
345.386	4.05351
345.87	4.0069
346.393	3.95573
346.971	3.89955
347.618	3.83785
348.35	3.7701
349.185	3.6958
349.185	3.6958
350.315	3.64709
351.663	3.58903
353.095	3.51632
