Uv/Vis Spectrum: Magnesocene
Formula: C10H10Mg
CAS: 1284-72-6
Instrument: Cary 14
Origin: INSTITUTE OF ENERGY PROBLEMS OF CHEMICAL PHYSICS, RAS
Wavelength (nm)	Logarithm epsilon
210.56	3.945
211.44	3.938
212.32	3.931
213.02	3.924
213.73	3.917
214.43	3.91
215.14	3.903
215.84	3.895
216.72	3.888
217.6	3.88
218.48	3.873
219.36	3.866
220.24	3.859
221.3	3.852
222.35	3.845
223.41	3.837
224.46	3.83
225.7	3.823
226.93	3.816
228.16	3.809
229.39	3.803
230.62	3.797
232.03	3.791
233.44	3.786
234.67	3.78
236.08	3.774
237.31	3.767
238.37	3.76
239.42	3.751
240.3	3.741
241.18	3.732
241.89	3.721
242.77	3.709
243.3	3.698
244.18	3.687
245.06	3.675
245.76	3.662
246.46	3.649
247.17	3.636
247.87	3.622
248.4	3.608
248.93	3.593
249.46	3.578
249.98	3.56
250.51	3.543
251.04	3.526
251.92	3.508
252.45	3.487
252.98	3.465
253.5	3.444
254.03	3.422
254.56	3.399
255.26	3.375
255.97	3.349
256.67	3.322
257.38	3.293
258.08	3.262
258.78	3.228
259.66	3.192
260.37	3.152
261.25	3.114
261.78	3.067
262.83	3.027
263.89	2.975
264.77	2.908
265.65	2.839
266.7	2.757
267.94	2.687
269.17	2.584
270.58	2.476
271.98	2.364
273.57	2.256
