Uv/Vis Spectrum: 2,6-Di-t-butyl-p-cresol
Formula: C15H24O
CAS: 128-37-0
Melting point: 71
Boiling point: 265
Instrument: SF-4
Origin: INSTITUTE OF ENERGY PROBLEMS OF CHEMICAL PHYSICS, RAS
Wavelength (nm)	Logarithm epsilon
234.83	3.2
234.98	3.162
235.27	3.106
235.6	3.045
235.9	2.997
236.24	2.942
236.72	2.864
237.24	2.797
237.76	2.726
238.27	2.667
238.82	2.61
239.34	2.562
239.82	2.522
240.34	2.48
240.86	2.435
241.38	2.397
241.89	2.349
242.33	2.306
242.83	2.263
243.44	2.202
243.96	2.17
244.43	2.147
245	2.135
245.51	2.127
246.03	2.123
246.55	2.123
247.06	2.123
247.58	2.125
248.1	2.132
248.62	2.147
249.13	2.17
249.65	2.202
250.17	2.241
250.65	2.276
251.2	2.31
251.72	2.334
252.24	2.363
252.75	2.391
253.27	2.416
253.79	2.447
254.3	2.475
254.82	2.502
255.33	2.532
255.86	2.559
256.37	2.581
256.89	2.602
257.41	2.622
257.93	2.641
258.44	2.663
258.96	2.684
259.47	2.703
259.99	2.723
260.51	2.745
261.03	2.767
261.6	2.789
262.06	2.81
262.58	2.827
263.1	2.846
263.61	2.867
264.13	2.884
264.65	2.903
265.18	2.922
265.68	2.942
266.2	2.96
266.72	2.981
267.23	2.998
267.75	3.014
268.27	3.036
268.79	3.056
269.3	3.075
269.82	3.088
270.34	3.101
270.85	3.113
271.37	3.126
271.89	3.143
272.41	3.159
272.92	3.179
273.43	3.196
273.96	3.21
274.47	3.218
274.99	3.225
275.51	3.232
276.03	3.236
276.54	3.24
277.06	3.244
277.58	3.245
278.09	3.245
278.61	3.245
279.13	3.242
279.65	3.237
280.16	3.23
280.68	3.225
281.2	3.221
281.71	3.215
282.23	3.209
282.75	3.203
283.27	3.196
283.78	3.189
284.31	3.174
284.82	3.143
285.33	3.093
285.85	3.037
286.37	2.973
286.89	2.897
287.43	2.824
287.92	2.759
288.38	2.698
288.95	2.634
289.47	2.559
289.99	2.491
290.51	2.397
291.02	2.286
291.47	2.199
292.06	2.098
292.54	2.026
293.09	1.961
293.61	1.903
294.13	1.837
294.7	1.768
295.21	1.706
295.68	1.664
296.14	1.613
296.71	1.542
297.23	1.493
297.75	1.437
