Uv/Vis Spectrum: 2-phenyl-3,5-pyridinedicarbonitrile
Formula: C13H7N3
CAS: 128888-65-3
Melting point: 125-126
Instrument: Specord M-40
Origin: INSTITUTE OF ENERGY PROBLEMS OF CHEMICAL PHYSICS, RAS
Wavelength (nm)	Logarithm epsilon
218.983	4.307
219.983	4.293
220.983	4.279
221.983	4.264
222.983	4.248
223.983	4.231
224.983	4.214
225.983	4.196
226.983	4.178
227.983	4.159
228.983	4.139
229.983	4.119
230.983	4.097
231.983	4.076
232.983	4.053
233.983	4.03
234.983	4.006
235.983	3.981
236.983	3.956
237.983	3.93
238.983	3.904
239.983	3.876
240.98	3.851
241.98	3.823
242.98	3.8
243.98	3.782
244.98	3.77
245.98	3.762
246.98	3.76
247.98	3.763
248.98	3.771
249.98	3.785
251.083	3.806
252.083	3.83
253.083	3.853
254.083	3.875
255.083	3.895
256.083	3.915
257.083	3.933
258.083	3.952
259.083	3.969
260.083	3.987
261.083	4.003
262.083	4.02
263.083	4.036
264.083	4.052
265.083	4.067
266.284	4.084
267.284	4.1
268.284	4.116
269.284	4.134
270.284	4.152
271.284	4.169
272.284	4.186
273.284	4.201
274.284	4.216
275.284	4.23
276.284	4.242
277.284	4.252
278.284	4.261
279.284	4.268
280.284	4.274
281.284	4.278
282.284	4.28
283.284	4.281
284.284	4.28
285.284	4.277
286.284	4.273
287.284	4.268
288.284	4.261
289.284	4.252
290.284	4.243
291.284	4.231
292.284	4.219
293.284	4.204
294.284	4.189
295.284	4.172
296.284	4.153
297.284	4.133
298.284	4.112
299.284	4.089
300.284	4.066
301.284	4.04
302.284	4.014
303.284	3.987
304.284	3.958
305.284	3.93
306.284	3.901
307.284	3.871
308.284	3.843
309.284	3.815
311.083	3.765
312.083	3.735
313.083	3.703
314.083	3.67
315.083	3.636
316.083	3.6
317.083	3.562
318.083	3.521
319.083	3.478
320.083	3.431
321.083	3.381
322.083	3.326
