Uv/Vis Spectrum: 9,10-Anthracenedione, 1-hydroxy-
Formula: C14H8O3
CAS: 129-43-1
Melting point: 192-193
Instrument: Unicam SP 700
Origin: INSTITUTE OF ENERGY PROBLEMS OF CHEMICAL PHYSICS, RAS
Wavelength (nm)	Logarithm epsilon
209.19	4.309
210.73	4.299
212.26	4.295
213.79	4.302
215.15	4.312
216.52	4.33
217.88	4.34
219.41	4.347
220.94	4.34
222.47	4.333
223.84	4.319
225.2	4.302
226.22	4.282
227.24	4.258
228.09	4.234
228.94	4.207
229.46	4.18
230.31	4.156
231.33	4.136
232.86	4.129
234.22	4.146
235.41	4.163
236.61	4.18
237.8	4.2
238.99	4.217
240.18	4.238
241.37	4.255
242.57	4.272
243.76	4.292
244.95	4.309
246.31	4.326
247.67	4.34
249.04	4.357
250.4	4.37
251.76	4.384
253.29	4.387
254.82	4.384
256.19	4.37
257.55	4.357
258.74	4.336
259.76	4.312
260.61	4.289
261.46	4.265
262.49	4.241
263.85	4.224
265.21	4.21
266.57	4.2
268.1	4.197
269.64	4.193
271.17	4.187
272.7	4.18
274.23	4.17
275.77	4.163
277.3	4.153
278.83	4.146
280.19	4.129
281.38	4.112
282.41	4.088
283.43	4.064
284.28	4.04
285.13	4.013
285.81	3.986
286.32	3.959
286.83	3.931
287.51	3.904
288.02	3.877
288.54	3.85
289.22	3.822
289.73	3.795
290.24	3.768
290.92	3.741
291.6	3.713
292.11	3.683
292.62	3.656
293.3	3.628
293.81	3.601
294.32	3.574
295.01	3.547
295.69	3.519
296.2	3.492
296.88	3.465
297.56	3.438
298.07	3.411
298.75	3.383
299.43	3.356
299.94	3.329
300.79	3.305
301.65	3.278
303.01	3.264
304.54	3.257
306.07	3.261
307.6	3.264
309.14	3.274
310.67	3.278
312.03	3.291
313.39	3.302
314.93	3.312
316.29	3.322
317.82	3.329
319.18	3.339
320.72	3.342
322.08	3.353
323.61	3.356
325.14	3.363
326.67	3.37
328.21	3.373
329.74	3.377
331.27	3.377
332.8	3.38
334.34	3.38
335.87	3.377
337.4	3.373
338.93	3.37
340.47	3.359
342	3.356
343.36	3.346
344.89	3.339
346.42	3.332
347.96	3.325
349.49	3.325
351.02	3.329
352.55	3.339
354.09	3.342
355.45	3.356
356.81	3.366
358.17	3.377
359.53	3.39
360.9	3.407
362.09	3.424
363.45	3.438
364.64	3.455
365.83	3.472
367.03	3.489
368.39	3.506
369.58	3.523
370.77	3.54
372.13	3.557
373.5	3.571
374.86	3.588
376.22	3.601
377.58	3.615
378.94	3.625
380.31	3.639
381.67	3.652
383.2	3.659
384.56	3.669
385.93	3.679
387.46	3.686
388.82	3.7
390.35	3.703
391.71	3.713
393.25	3.717
394.78	3.72
396.31	3.727
397.84	3.734
399.38	3.737
400.91	3.744
402.44	3.748
403.97	3.748
405.51	3.748
407.04	3.748
408.57	3.741
410.1	3.734
411.63	3.724
413.17	3.717
414.7	3.707
416.23	3.7
417.59	3.686
419.13	3.679
420.66	3.669
422.19	3.666
423.72	3.656
425.26	3.652
426.96	3.635
428.32	3.622
429.68	3.605
431.04	3.588
432.41	3.571
433.6	3.55
434.62	3.53
435.81	3.509
437	3.492
438.2	3.472
439.22	3.448
440.41	3.428
441.43	3.407
442.45	3.383
443.47	3.363
444.49	3.339
445.35	3.315
446.37	3.295
447.39	3.271
448.41	3.247
449.26	3.223
450.28	3.2
451.14	3.176
451.99	3.148
452.84	3.121
453.69	3.097
454.37	3.07
455.22	3.046
455.9	3.019
456.75	2.995
457.26	2.968
458.12	2.944
458.8	2.917
459.48	2.89
460.16	2.863
460.84	2.835
461.52	2.808
462.2	2.781
462.71	2.754
463.56	2.726
464.25	2.699
464.76	2.672
465.44	2.645
466.12	2.618
466.63	2.59
467.31	2.563
467.82	2.536
468.5	2.509
469.18	2.481
469.69	2.451
470.37	2.424
470.89	2.396
471.4	2.369
472.08	2.342
472.76	2.315
473.27	2.287
474.12	2.26
474.63	2.233
475.31	2.206
475.99	2.178
476.67	2.151
477.36	2.124
478.04	2.097
478.89	2.07
479.57	2.042
480.25	2.015
481.1	1.988
481.78	1.961
482.63	1.933
483.31	1.906
484.17	1.882
485.02	1.855
485.87	1.828
486.55	1.801
487.4	1.777
488.08	1.75
488.93	1.722
489.61	1.695
490.47	1.671
491.32	1.644
492.17	1.62
493.02	1.596
493.87	1.573
494.72	1.545
495.4	1.518
496.25	1.494
496.94	1.467
497.79	1.443
