Uv/Vis Spectrum: 1,1'-Biphenyl, 2,2'-dichloro-
Formula: C12H8Cl2
CAS: 13029-08-8
Melting point: 60.5
Instrument: unknown
Origin: INSTITUTE OF ENERGY PROBLEMS OF CHEMICAL PHYSICS, RAS
Wavelength (nm)	Logarithm epsilon
217.84	4.396
218.69	4.367
219.54	4.337
220.56	4.308
221.41	4.275
222.26	4.246
223.11	4.212
223.96	4.179
224.64	4.145
225.33	4.112
226	4.079
226.52	4.051
227.36	4.016
228.04	3.983
228.7	3.956
229.74	3.924
230.93	3.904
231.95	3.874
232.97	3.845
233.82	3.816
234.84	3.791
235.86	3.766
236.88	3.741
237.9	3.716
238.92	3.691
240.11	3.666
241.13	3.641
241.98	3.612
243	3.582
243.85	3.553
244.87	3.528
245.72	3.495
246.57	3.466
247.42	3.436
248.1	3.403
248.95	3.374
249.8	3.345
250.64	3.315
251.49	3.286
252.51	3.257
253.36	3.224
253.87	3.19
254.72	3.157
255.23	3.123
255.91	3.09
256.49	3.067
257.14	3.049
258	3.027
258.8	3.007
259.14	2.994
259.48	2.986
259.82	2.982
260.16	2.977
260.49	2.97
260.84	2.961
261.18	2.957
261.52	2.952
261.86	2.944
262.2	2.94
262.54	2.927
262.88	2.919
263.22	2.907
263.56	2.894
263.9	2.882
264.24	2.877
264.58	2.89
264.92	2.907
265.26	2.911
265.6	2.915
265.94	2.915
266.28	2.911
266.62	2.907
266.96	2.902
267.31	2.893
267.64	2.882
267.98	2.869
268.32	2.861
268.66	2.852
269	2.844
269.34	2.836
269.68	2.827
270.02	2.815
270.36	2.806
270.7	2.794
271.04	2.781
271.38	2.773
271.72	2.765
272.06	2.761
272.4	2.769
272.74	2.777
273.08	2.781
273.42	2.781
273.76	2.781
274.1	2.777
274.4	2.765
274.78	2.744
275.12	2.727
275.46	2.706
275.8	2.685
276.14	2.665
276.48	2.644
276.78	2.616
277.16	2.594
277.5	2.569
277.84	2.544
278.18	2.514
278.52	2.485
278.86	2.464
279.14	2.442
279.47	2.417
279.88	2.389
280.18	2.356
280.56	2.327
280.9	2.289
281.24	2.26
281.58	2.214
281.92	2.177
282.26	2.139
282.6	2.093
282.94	2.047
283.28	2.006
283.62	1.956
283.96	1.905
