Uv/Vis Spectrum: Chromium hexacarbonyl
Formula: C6CrO6
CAS: 13007-92-6
Melting point: 151-152
Boiling point: sub
Instrument: Cary Model 10-S
Origin: INSTITUTE OF ENERGY PROBLEMS OF CHEMICAL PHYSICS, RAS
Wavelength (nm)	Logarithm epsilon
214.18	4.343
214.56	4.367
214.94	4.388
215.32	4.413
215.7	4.43
216.08	4.445
216.46	4.462
216.84	4.475
217.22	4.485
217.59	4.502
217.97	4.515
218.35	4.523
218.73	4.536
219.11	4.546
219.49	4.559
219.87	4.57
220.25	4.58
220.63	4.591
221.01	4.6
221.4	4.609
221.78	4.618
222.14	4.631
222.53	4.641
222.91	4.652
223.29	4.663
223.67	4.675
224.05	4.686
224.43	4.703
224.81	4.713
225.19	4.72
225.57	4.724
225.95	4.728
226.33	4.728
226.71	4.728
227.09	4.73
227.47	4.732
227.85	4.732
228.23	4.734
228.61	4.732
228.99	4.732
229.37	4.73
229.75	4.726
230.13	4.724
230.51	4.724
230.89	4.722
231.27	4.715
231.65	4.713
232.03	4.707
232.41	4.703
232.78	4.694
233.16	4.69
233.54	4.682
233.92	4.673
234.3	4.669
234.68	4.661
235.06	4.654
235.44	4.644
235.82	4.635
236.15	4.628
236.6	4.617
236.88	4.61
237.31	4.598
237.72	4.582
238.11	4.571
238.48	4.561
238.86	4.548
239.2	4.539
239.62	4.527
240	4.513
240.32	4.5
240.62	4.489
240.97	4.476
241.52	4.453
241.9	4.434
242.28	4.413
242.65	4.397
243.04	4.382
243.42	4.369
243.8	4.35
244.18	4.335
244.56	4.32
244.94	4.305
245.32	4.291
245.7	4.274
246.08	4.263
246.46	4.244
246.84	4.231
247.22	4.217
247.59	4.206
247.97	4.191
248.21	4.181
248.63	4.165
249.08	4.148
249.5	4.136
249.87	4.126
250.25	4.117
250.63	4.109
251.01	4.105
251.39	4.096
251.77	4.088
252.15	4.083
252.53	4.077
252.91	4.071
253.29	4.064
253.67	4.06
254.05	4.052
254.43	4.048
254.81	4.041
255.19	4.037
255.57	4.029
255.95	4.022
256.33	4.018
256.71	4.012
257.09	4.007
257.47	4.001
257.85	3.997
258.23	3.993
258.61	3.988
258.99	3.986
259.37	3.986
259.75	3.984
260.13	3.982
260.51	3.98
260.89	3.978
261.27	3.978
261.65	3.978
262.03	3.978
262.41	3.978
262.78	3.978
263.16	3.978
263.54	3.978
263.92	3.98
264.3	3.982
264.68	3.984
265.06	3.984
265.44	3.986
265.82	3.986
266.2	3.988
266.58	3.988
266.96	3.993
267.34	3.995
267.72	3.997
268.1	3.997
268.48	3.999
268.86	4.001
269.24	4.005
269.62	4.005
270	4.007
270.38	4.007
270.76	4.007
271.14	4.007
271.52	4.007
271.9	4.007
272.28	4.005
272.66	4.005
273.04	4.001
273.42	3.999
273.8	3.997
274.18	3.995
274.56	3.988
274.94	3.978
275.32	3.969
275.7	3.963
276.08	3.952
276.46	3.944
276.84	3.933
277.22	3.929
277.59	3.921
277.97	3.91
278.35	3.902
278.73	3.895
279.11	3.883
279.49	3.872
279.81	3.865
280.25	3.849
280.64	3.841
281.01	3.83
281.39	3.819
281.77	3.809
282.15	3.798
282.53	3.79
282.91	3.785
283.29	3.781
283.67	3.777
284.05	3.773
284.43	3.762
284.81	3.752
285.19	3.728
285.57	3.718
285.95	3.705
286.33	3.69
286.71	3.684
287.09	3.671
287.47	3.657
287.85	3.644
288.23	3.633
288.61	3.621
288.99	3.612
289.37	3.597
289.75	3.591
290.13	3.574
290.51	3.564
290.89	3.553
291.27	3.542
291.65	3.53
292.03	3.521
292.41	3.511
292.78	3.5
293.16	3.492
293.54	3.483
293.92	3.481
294.3	3.462
294.68	3.458
295.06	3.449
295.44	3.441
295.82	3.435
296.2	3.43
296.58	3.422
296.96	3.418
297.34	3.411
297.72	3.403
298.1	3.399
298.48	3.392
298.86	3.388
