Uv/Vis Spectrum: 1,2,3-Trithiane, 5,5-dimethyl-
Formula: C5H10S3
CAS: 13005-81-7
Instrument: unknown
Origin: INSTITUTE OF ENERGY PROBLEMS OF CHEMICAL PHYSICS, RAS
Wavelength (nm)	Logarithm epsilon
232.89	3.071
234.62	3.053
236.36	3.032
238.38	3.018
240.4	3
242.99	3
245.59	3.009
247.61	3.027
249.34	3.047
250.79	3.068
252.52	3.088
254.25	3.109
255.98	3.126
258	3.144
259.73	3.161
262.04	3.17
264.64	3.173
267.24	3.164
269.26	3.15
271.28	3.132
272.72	3.112
274.16	3.088
275.61	3.068
277.05	3.047
277.92	3.024
279.65	3.003
281.38	2.983
282.82	2.962
284.55	2.942
286.29	2.924
288.02	2.906
290.04	2.889
292.06	2.874
294.08	2.857
296.1	2.839
297.83	2.818
299.56	2.798
301	2.777
303.02	2.751
304.47	2.728
306.2	2.71
307.64	2.687
309.37	2.666
310.82	2.643
311.97	2.619
313.13	2.596
314.57	2.575
315.72	2.552
316.88	2.528
318.03	2.505
318.9	2.481
320.05	2.458
321.21	2.435
322.65	2.411
323.52	2.388
324.67	2.364
325.54	2.341
326.4	2.317
327.27	2.294
328.42	2.27
329.29	2.247
