Uv/Vis Spectrum: 7,9-dihydro-3,7-dimethyl-1H-purine-2,6,8(3H)-trione
Formula: C7H8N4O3
CAS: 13087-49-5
Instrument: Cary 15
Origin: INSTITUTE OF ENERGY PROBLEMS OF CHEMICAL PHYSICS, RAS
Wavelength (nm)	Logarithm epsilon
200.171	4.306
200.341	4.306
200.512	4.306
200.682	4.306
200.734	4.296
201.234	4.275
201.734	4.256
202.234	4.24
202.734	4.225
203.234	4.213
203.734	4.203
204.234	4.195
204.734	4.188
205.234	4.183
205.734	4.18
206.234	4.177
206.734	4.176
207.234	4.176
207.734	4.177
208.234	4.179
208.734	4.181
209.234	4.184
209.734	4.187
210.234	4.19
210.734	4.194
211.234	4.198
211.734	4.202
212.234	4.205
212.734	4.209
213.234	4.212
213.734	4.215
214.234	4.217
214.734	4.218
215.234	4.219
215.734	4.22
216.234	4.219
216.734	4.218
217.234	4.216
217.734	4.212
218.234	4.208
218.734	4.203
219.234	4.197
219.734	4.19
220.234	4.182
220.734	4.173
221.234	4.163
221.734	4.152
222.234	4.14
222.734	4.128
223.234	4.114
223.734	4.1
224.234	4.085
224.734	4.069
225.234	4.053
225.734	4.036
226.234	4.019
226.734	4.003
227.234	3.986
227.734	3.969
228.234	3.952
228.734	3.937
229.234	3.921
229.734	3.907
229.833	3.907
230.333	3.891
230.833	3.875
231.333	3.858
231.833	3.842
232.333	3.826
232.833	3.81
233.333	3.795
233.833	3.78
234.333	3.766
234.833	3.753
235.333	3.741
235.833	3.73
236.333	3.719
236.833	3.71
237.333	3.701
237.833	3.693
238.333	3.686
238.833	3.68
239.333	3.675
239.833	3.671
240.333	3.667
240.833	3.664
241.333	3.661
241.833	3.659
242.333	3.657
242.833	3.656
243.333	3.654
243.833	3.653
244.333	3.652
244.833	3.651
245.333	3.65
245.833	3.648
246.333	3.647
246.833	3.645
247.333	3.642
247.833	3.639
248.333	3.636
248.833	3.632
249.333	3.628
249.833	3.624
250.333	3.619
250.833	3.613
251.333	3.608
251.833	3.602
252.333	3.597
252.833	3.591
253.333	3.587
253.676	3.584
254.676	3.578
255.676	3.572
256.676	3.566
257.676	3.562
258.676	3.558
259.676	3.556
260.676	3.555
261.676	3.556
262.676	3.56
263.676	3.565
264.676	3.574
265.676	3.585
266.676	3.6
267.676	3.617
268.676	3.638
269.676	3.661
270.676	3.688
271.676	3.717
272.676	3.747
273.676	3.779
274.676	3.811
275.676	3.842
275.829	3.846
276.829	3.871
277.829	3.896
278.829	3.922
279.829	3.947
280.829	3.973
281.829	3.998
282.829	4.023
283.829	4.047
284.829	4.071
285.829	4.094
286.829	4.116
287.829	4.137
288.829	4.157
289.829	4.175
290.829	4.192
291.829	4.207
292.829	4.221
293.829	4.231
294.829	4.239
295.829	4.244
296.829	4.244
297.043	4.244
298.043	4.239
299.043	4.232
300.043	4.223
301.043	4.212
302.043	4.198
303.043	4.181
304.043	4.161
305.043	4.136
306.043	4.108
307.043	4.074
308.043	4.034
309.043	3.99
310.043	3.939
311.043	3.882
312.043	3.819
313.043	3.751
314.043	3.678
315.043	3.602
316.005	3.512
316.518	3.471
316.568	3.466
317.568	3.384
318.568	3.286
319.568	3.147
