Uv/Vis Spectrum: Methanone, (2,4-dihydroxyphenyl)phenyl-
Formula: C13H10O3
CAS: 131-56-6
Melting point: 142-144
Instrument: Unicam SP 800
Origin: INSTITUTE OF ENERGY PROBLEMS OF CHEMICAL PHYSICS, RAS
Wavelength (nm)	Logarithm epsilon
200.29	4.393
200.37	4.393
200.46	4.393
200.55	4.391
200.63	4.391
200.72	4.391
200.81	4.391
200.9	4.391
200.98	4.389
201.07	4.389
201.16	4.389
201.25	4.389
201.33	4.387
201.42	4.387
201.51	4.387
201.6	4.387
201.86	4.376
202.39	4.374
202.93	4.366
203.46	4.361
204	4.353
204.55	4.344
205.09	4.336
205.64	4.329
206.19	4.321
206.75	4.312
207.3	4.301
207.86	4.291
208.43	4.28
208.99	4.272
209.56	4.261
210.14	4.254
210.71	4.248
211.29	4.239
211.87	4.229
212.46	4.227
213.05	4.218
213.64	4.214
214.23	4.205
214.83	4.199
215.43	4.195
216.04	4.186
216.65	4.178
217.26	4.171
217.88	4.163
218.49	4.154
219.12	4.143
219.74	4.133
220.37	4.12
221.01	4.105
221.64	4.092
222.28	4.073
222.93	4.06
223.58	4.045
224.23	4.028
224.88	4.009
225.54	3.994
226.21	3.975
226.87	3.953
227.54	3.934
228.22	3.917
228.9	3.902
229.58	3.891
230.27	3.883
230.96	3.881
231.66	3.878
232.36	3.881
233.06	3.881
233.77	3.885
234.48	3.891
235.2	3.902
235.92	3.91
236.65	3.921
237.38	3.932
238.11	3.943
238.85	3.953
239.6	3.966
240.35	3.975
241.1	3.983
241.83	3.989
242.62	3.994
243.34	3.995
244.16	3.996
244.94	3.996
245.72	3.994
246.3	3.989
246.97	3.982
247.53	3.974
248.2	3.964
248.9	3.953
249.71	3.94
250.52	3.921
251.34	3.906
252.17	3.887
253	3.859
253.83	3.838
254.67	3.814
255.52	3.789
256.37	3.763
257.23	3.733
258.09	3.705
258.96	3.678
259.83	3.65
260.71	3.628
261.6	3.609
262.49	3.601
263.39	3.594
264.3	3.59
265.21	3.592
266.13	3.599
267.05	3.609
267.98	3.622
268.92	3.639
269.86	3.661
270.81	3.684
271.77	3.712
272.73	3.737
273.71	3.765
274.68	3.793
275.67	3.819
276.66	3.846
277.66	3.876
278.66	3.9
279.68	3.928
280.7	3.949
281.73	3.972
282.76	3.998
283.81	4.019
284.86	4.039
285.92	4.056
286.98	4.073
288.06	4.086
289.14	4.098
290.23	4.109
291.33	4.118
292.44	4.118
293.56	4.113
294.68	4.111
295.81	4.103
296.96	4.094
298.11	4.084
299.27	4.073
300.44	4.06
301.61	4.047
302.8	4.037
304	4.026
305.21	4.017
306.42	4.009
307.65	4
308.88	3.996
310.13	3.99
311.38	3.985
312.65	3.981
313.93	3.979
315.21	3.977
316.51	3.975
317.82	3.977
319.14	3.977
320.47	3.981
321.81	3.99
323.16	3.998
324.52	3.998
325.9	3.996
327.29	3.992
328.69	3.987
330.1	3.981
331.52	3.977
332.95	3.972
334.4	3.966
335.86	3.955
337.34	3.945
338.82	3.934
340.32	3.915
341.83	3.893
343.36	3.868
344.9	3.838
346.45	3.802
347.71	3.763
349.25	3.712
350.55	3.652
351.85	3.579
352.47	3.538
353.15	3.487
353.83	3.435
354.57	3.371
355.4	3.296
356.01	3.226
356.58	3.158
357.1	3.078
357.65	3.001
