Uv/Vis Spectrum: 1-Nitroso-2-naphthol
Formula: C10H7NO2
CAS: 131-91-9
Melting point: 109.5
Instrument: Beckman DU
Origin: INSTITUTE OF ENERGY PROBLEMS OF CHEMICAL PHYSICS, RAS
Wavelength (nm)	Logarithm epsilon
319.708	3.30427
319.865	3.30476
320.029	3.30522
320.133	3.30704
320.197	3.30559
320.197	3.30559
320.205	3.30953
320.216	3.30463
320.243	3.30359
320.274	3.3025
320.274	3.3025
320.282	3.312
320.366	3.31445
320.366	3.31445
320.429	3.30227
320.592	3.302
320.758	3.30166
321.039	3.32266
321.72	3.33071
322.398	3.33869
323.058	3.34665
323.687	3.35467
324.272	3.3628
324.799	3.37108
324.799	3.37108
324.956	3.37151
325.12	3.3719
325.287	3.37222
325.287	3.37222
325.485	3.37914
325.885	3.38698
326.432	3.3954
327.07	3.40411
327.743	3.41281
328.397	3.42123
328.976	3.42915
329.425	3.43632
329.425	3.43632
329.5	3.43909
329.579	3.44181
329.666	3.44446
329.666	3.44446
329.818	3.44482
329.974	3.44515
330.137	3.44542
330.137	3.44542
330.235	3.44851
330.34	3.45156
330.448	3.45453
330.448	3.45453
331.037	3.46145
331.569	3.46851
332.059	3.47562
332.524	3.48272
332.979	3.48971
333.442	3.49656
333.926	3.50318
334.45	3.50952
335.023	3.51364
335.029	3.51553
335.029	3.51553
335.074	3.50904
335.155	3.51306
335.268	3.50972
335.291	3.51245
335.362	3.51043
335.433	3.52202
335.435	3.51179
335.435	3.51179
335.886	3.52833
336.374	3.53451
336.882	3.54056
337.397	3.5465
337.902	3.55234
338.385	3.55811
338.83	3.56381
339.223	3.56946
339.549	3.57506
339.549	3.57506
340.247	3.58064
340.882	3.58612
341.473	3.59157
342.036	3.59708
342.591	3.6027
342.863	3.60385
343.451	3.60898
343.953	3.61397
344.252	3.61925
344.252	3.61925
344.437	3.61958
344.623	3.61991
344.808	3.62023
344.808	3.62023
344.96	3.62349
345.02	3.61872
345.02	3.61872
345.022	3.61924
345.024	3.61974
345.026	3.62021
345.108	3.61871
345.115	3.6202
345.151	3.62551
345.204	3.6187
345.211	3.62019
345.304	3.61869
345.306	3.61921
345.309	3.61971
345.311	3.62017
345.544	3.62767
345.544	3.62767
346.084	3.63279
346.623	3.63784
347.162	3.64283
347.701	3.64775
348.241	3.65261
348.78	3.65742
349.319	3.66217
349.319	3.66217
349.327	3.66391
349.336	3.66564
349.344	3.66737
349.344	3.66737
349.534	3.66507
349.547	3.66771
349.652	3.66529
349.754	3.66802
349.77	3.66549
349.888	3.66566
349.888	3.66566
349.909	3.66634
349.933	3.66699
349.965	3.66761
349.968	3.66832
349.968	3.66832
350.103	3.67001
350.321	3.672
350.759	3.6753
351.558	3.68093
352.854	3.6898
352.854	3.6898
353.539	3.69346
354.205	3.6971
354.567	3.69729
354.865	3.70071
354.867	3.70024
354.868	3.69749
354.948	3.69958
355.012	3.69772
355.033	3.6989
355.124	3.69819
355.124	3.69819
355.529	3.70428
356.206	3.7078
356.908	3.71126
357.645	3.71465
358.427	3.71796
358.427	3.71796
358.482	3.71883
358.537	3.71968
358.592	3.72051
358.787	3.71938
359.472	3.72072
359.776	3.72225
359.856	3.72501
359.998	3.72355
360.886	3.726
361.798	3.72846
362.73	3.73083
363.682	3.73306
363.93	3.73197
364.248	3.73195
364.571	3.73192
364.649	3.73507
364.901	3.73189
364.901	3.73189
365.057	3.73292
365.067	3.73463
365.1	3.73363
365.631	3.73678
366.12	3.73734
366.56	3.73803
367.004	3.73872
367.455	3.73941
367.876	3.7399
368.654	3.74027
369.765	3.74032
370.377	3.74081
370.436	3.73941
370.991	3.74092
371.615	3.74077
372.178	3.73952
372.593	3.73895
373.475	3.73762
373.872	3.7355
374.248	3.73548
374.366	3.73271
374.366	3.73271
374.471	3.73545
374.7	3.73543
374.805	3.73629
374.845	3.73656
374.892	3.73682
374.925	3.73374
374.928	3.73432
374.931	3.73488
374.934	3.73541
374.934	3.73541
374.944	3.73708
375.335	3.73243
376.222	3.73092
377.123	3.72847
377.538	3.72789
377.807	3.72712
378.083	3.72634
378.362	3.72556
379.873	3.72316
379.886	3.7224
379.903	3.72162
379.927	3.72081
379.927	3.72081
380.312	3.71985
380.704	3.71886
381.1	3.71785
382.058	3.71546
382.597	3.71399
383.13	3.71219
383.812	3.70523
383.812	3.70523
383.907	3.70634
384.009	3.70743
384.048	3.70535
384.114	3.70849
384.114	3.70849
384.25	3.70876
384.283	3.70545
384.366	3.70867
384.483	3.70857
384.517	3.70552
384.517	3.70552
384.6	3.70844
384.6	3.70844
384.614	3.70794
384.633	3.70744
384.659	3.70694
385.082	3.70529
385.872	3.70221
386.733	3.69757
387.51	3.69272
388.049	3.68903
388.049	3.68903
388.439	3.68452
388.902	3.67956
388.914	3.66743
389.15	3.66787
389.333	3.67441
389.387	3.6683
389.623	3.66868
389.623	3.66868
389.626	3.66931
389.681	3.66363
389.866	3.65824
390.126	3.65265
390.409	3.64701
390.409	3.64701
391.198	3.6375
391.633	3.63287
391.808	3.63056
391.808	3.63056
392.885	3.62363
393.98	3.61725
394.371	3.61146
394.411	3.61181
394.458	3.61216
394.509	3.61251
394.509	3.61251
394.514	3.61366
395.586	3.60962
396.478	3.60553
397.524	3.60053
397.524	3.60053
398.34	3.59823
399.249	3.59515
399.983	3.59184
