Uv/Vis Spectrum: 4-Iodophenylhydrazine
Formula: C6H7IN2
CAS: 13116-27-3
Instrument: Unicam SP 800
Origin: INSTITUTE OF ENERGY PROBLEMS OF CHEMICAL PHYSICS, RAS
Wavelength (nm)	Logarithm epsilon
202.35	4.541
203.53	4.558
204.7	4.579
205.88	4.599
207.39	4.606
208.73	4.596
210.08	4.582
211.59	4.575
212.93	4.562
214.45	4.555
215.79	4.545
217.13	4.531
218.31	4.511
219.32	4.487
220.32	4.463
221.16	4.436
221.84	4.409
222.68	4.381
223.35	4.354
223.85	4.327
224.52	4.3
225.03	4.273
225.7	4.245
226.2	4.218
226.88	4.191
227.38	4.161
227.88	4.133
228.56	4.106
229.06	4.079
229.73	4.052
230.4	4.025
231.24	3.997
232.25	3.977
233.26	3.953
234.6	3.943
236.11	3.933
237.63	3.933
239.14	3.933
240.48	3.946
241.99	3.953
243.34	3.967
244.85	3.967
246.36	3.967
247.87	3.957
249.22	3.946
250.39	3.929
251.57	3.909
252.74	3.889
253.58	3.861
254.59	3.838
255.26	3.81
255.94	3.783
256.94	3.759
257.45	3.732
258.29	3.709
258.79	3.681
259.29	3.654
259.97	3.627
260.47	3.6
260.97	3.573
261.65	3.545
262.32	3.518
262.82	3.491
263.33	3.464
263.83	3.437
264.5	3.409
265.01	3.382
265.68	3.355
266.18	3.328
266.85	3.301
268.87	3.216
269.04	3.212
269.2	3.209
269.54	3.195
269.88	3.182
270.21	3.165
270.55	3.144
270.88	3.117
271.22	3.11
271.56	3.11
271.89	3.121
272.23	3.127
272.56	3.131
272.9	3.131
273.24	3.131
273.57	3.131
273.91	3.127
274.24	3.121
274.58	3.117
274.92	3.117
275.25	3.117
277.1	3.134
278.44	3.151
279.62	3.172
280.96	3.189
281.97	3.212
282.81	3.236
283.82	3.26
284.83	3.284
285.83	3.307
286.67	3.331
287.68	3.352
288.69	3.375
289.7	3.396
290.71	3.416
291.88	3.437
292.89	3.457
294.06	3.477
295.24	3.494
296.42	3.511
297.76	3.525
299.27	3.532
300.78	3.535
302.3	3.535
303.81	3.532
305.15	3.515
306.49	3.501
307.84	3.488
309.01	3.467
310.19	3.447
311.03	3.423
312.04	3.403
312.88	3.379
313.89	3.355
314.73	3.331
315.57	3.307
316.24	3.28
317.08	3.256
317.58	3.229
318.42	3.206
319.09	3.178
319.76	3.151
320.44	3.124
321.11	3.097
321.78	3.07
322.45	3.042
322.96	3.015
323.46	2.985
323.96	2.957
324.47	2.93
324.97	2.903
325.31	2.872
325.98	2.845
326.48	2.818
326.99	2.787
327.32	2.757
327.83	2.726
328.16	2.696
328.5	2.665
329.17	2.638
329.51	2.607
330.01	2.577
330.35	2.546
330.85	2.519
331.19	2.488
331.69	2.461
332.03	2.431
332.53	2.403
333.2	2.376
333.54	2.346
334.04	2.315
334.21	2.284
334.71	2.257
335.22	2.227
335.55	2.196
336.23	2.169
336.73	2.138
337.07	2.108
337.57	2.081
337.91	2.05
338.58	2.023
338.91	1.992
339.42	1.965
340.09	1.938
340.59	1.907
341.1	1.877
341.6	1.849
342.11	1.822
342.61	1.795
343.28	1.768
343.78	1.741
344.46	1.714
344.96	1.686
345.46	1.659
345.97	1.632
346.47	1.601
346.98	1.571
347.48	1.54
347.98	1.513
348.49	1.486
