Uv/Vis Spectrum: 2-Chloroanthraquinone
Formula: C14H7ClO2
CAS: 131-09-9
Melting point: 211
Boiling point: sub
Instrument: Beckman spectrophotometer
Origin: INSTITUTE OF ENERGY PROBLEMS OF CHEMICAL PHYSICS, RAS
Wavelength (nm)	Logarithm epsilon
237.89	4.129
238.76	4.159
240.51	4.214
242.35	4.27
243.99	4.316
245.71	4.372
247.47	4.427
249.22	4.474
250.42	4.504
251.64	4.533
252.99	4.564
254.21	4.588
255.28	4.598
256.49	4.598
257.7	4.588
259.42	4.559
261.2	4.516
262.7	4.477
264.13	4.437
265.27	4.404
266.56	4.369
267.84	4.338
270.06	4.28
271.84	4.237
273.41	4.206
276.98	4.116
278.83	4.065
280.58	4.001
282.32	3.945
284.41	3.87
285.8	3.818
287.54	3.732
289.29	3.643
291.03	3.579
292.77	3.523
294.51	3.494
296.25	3.468
297.85	3.455
299.74	3.451
301.55	3.456
303.35	3.466
304.97	3.481
306.71	3.494
308.64	3.51
310.75	3.53
312.76	3.548
315.42	3.57
317.16	3.587
318.9	3.604
320.65	3.617
324.13	3.634
325.87	3.638
327.61	3.638
329.36	3.638
331.1	3.634
332.84	3.621
334.58	3.596
336.32	3.575
338.07	3.545
339.81	3.502
341.55	3.455
343.29	3.413
345.04	3.374
346.7	3.327
348.52	3.263
350.26	3.178
352	3.114
353.75	3.046
355.49	2.986
357.23	2.875
358.97	2.803
360.72	2.709
362.46	2.628
364.17	2.563
365.82	2.492
367.68	2.428
369.1	2.378
371.17	2.325
372.91	2.283
376.39	2.215
378.14	2.193
379.88	2.172
381.62	2.151
385.11	2.125
386.85	2.108
388.59	2.104
390.33	2.091
393	2.074
395.56	2.061
397.3	2.048
399.04	2.04
400.79	2.027
402.53	2.014
404.27	2.001
406.01	1.989
407.75	1.976
411.24	1.955
412.98	1.942
414.72	1.925
416.46	1.908
418.21	1.891
419.95	1.869
421.83	1.838
423.43	1.793
425.18	1.724
426.61	1.647
428.25	1.572
430.4	1.49
