Uv/Vis Spectrum: Dibenzofuran
Formula: C12H8O
CAS: 132-64-9
Melting point: 86.5
Boiling point: 287
Instrument: n.i.g.
Origin: INSTITUTE OF ENERGY PROBLEMS OF CHEMICAL PHYSICS, RAS
Wavelength (nm)	Logarithm epsilon
230	4.17
231	4.12
232	4.06
233	4.01
234	3.95
235	3.9
236	3.85
237	3.84
238	3.86
239	3.91
240	3.96
241	3.98
242	3.98
243	3.98
244	3.99
245	3.99
246	3.98
247	3.97
248	4.08
249	4.16
250	4.18001
251	4.04
252	3.72
253	3.28
254	3.05
255	3.01
256	3
257	3.03
258	3.08
259	3.15
260	3.22999
261	3.3
262	3.38
263	3.44
264	3.52
265	3.58
266	3.64
267	3.7
268	3.75
269	3.8
270	3.85
271	3.89
272	3.93
273	3.96
274	4
275	4.03
276	4.06
277	4.09
278	4.12
279	4.15
280	4.18001
281	4.19
282	4.18
283	4.16
284	4.15
285	4.15
286	4.15
287	4.14
288	4.1
289	4.06
290	4.01
291	3.96
292	3.92
293	3.9
294	3.89
295	3.89
296	3.91
297	3.91
298	3.87
299	3.73
