Uv/Vis Spectrum: Dibenzothiophene
Formula: C12H8S
CAS: 132-65-0
Melting point: 99.5
Boiling point: 332.5
Instrument: Beckman Spectrophotometer
Origin: INSTITUTE OF ENERGY PROBLEMS OF CHEMICAL PHYSICS, RAS
Wavelength (nm)	Logarithm epsilon
216.695	3.80452
216.904	3.79449
217.105	3.78796
217.468	3.77934
219.447	3.81812
219.545	3.82983
219.752	3.84333
219.942	3.86046
219.942	3.86046
220.037	3.85974
220.09	3.84901
220.132	3.8521
220.132	3.85877
220.177	3.85495
220.228	3.85768
220.228	3.85768
224.289	4.11367
224.438	4.12187
224.639	4.13694
224.934	4.15272
226.794	4.33842
226.795	4.34604
226.796	4.35366
226.797	4.36127
227.357	4.37531
227.427	4.38492
227.5	4.3943
227.578	4.40355
227.578	4.40355
227.742	4.40624
227.906	4.40893
228.069	4.41162
229.921	4.52115
230.016	4.52424
230.112	4.52708
230.208	4.5298
233.893	4.60795
233.935	4.61377
233.98	4.61934
234.031	4.62479
236.933	4.64434
237.097	4.64538
237.264	4.64629
237.437	4.64696
239.274	4.6466
240.223	4.63893
240.912	4.6162
241.376	4.57817
241.657	4.54438
241.9	4.51815
241.937	4.49372
241.973	4.50502
242.488	4.43703
242.693	4.42802
242.805	4.41855
242.919	4.40049
245.985	4.10335
245.986	4.10716
245.986	4.11097
245.987	4.11478
246.971	4.04113
246.972	4.04494
246.972	4.04875
246.973	4.05256
247.527	4.02416
247.572	4.02143
247.622	4.0187
247.676	4.01596
249.353	3.92803
249.397	3.92528
249.448	3.92241
249.501	3.9193
255.415	3.74619
255.691	3.74815
255.974	3.74986
256.259	3.75146
258.095	3.74021
259.115	3.70354
259.845	3.64648
260.336	3.58742
260.903	3.54759
260.914	3.53499
261.005	3.52553
261.252	3.51107
261.602	3.47999
261.611	3.47142
261.681	3.46478
261.871	3.45436
262.02	3.45161
262.116	3.45159
262.211	3.45157
262.306	3.45155
263.576	3.48503
263.714	3.48881
263.854	3.49259
264	3.49637
264.572	3.49626
264.631	3.48132
264.738	3.46818
264.987	3.44558
265.406	3.4172
265.423	3.41269
265.446	3.40792
265.472	3.40304
265.686	3.37743
265.703	3.3709
265.726	3.36436
265.752	3.35783
266.102	3.32675
266.248	3.32224
266.322	3.3163
266.385	3.30384
270.968	2.72783
270.969	2.73543
270.97	2.74291
270.971	2.75014
271.4	2.69945
271.441	2.69292
271.485	2.68638
271.534	2.67984
272.858	3.13932
272.858	3.14313
272.858	3.14694
272.859	3.15075
273.14	3.11097
273.233	3.09409
273.326	3.0772
273.419	3.06032
273.835	3.00909
273.875	2.99875
273.918	2.9884
273.967	2.97805
274.493	2.6145
274.537	2.62971
274.583	2.64479
274.635	2.65964
275.649	2.82266
275.907	2.83709
275.941	2.86775
275.955	2.85073
276.505	2.91824
276.601	2.92584
276.697	2.93344
276.794	2.94103
285.734	3.24393
285.837	3.26848
286.035	3.29566
286.166	3.32274
288.031	3.53945
288.076	3.54432
288.128	3.54906
288.182	3.55356
288.608	3.58177
288.744	3.58104
288.884	3.58006
289.029	3.57897
289.029	3.57897
289.172	3.29792
289.183	3.34697
289.301	3.39672
289.356	3.25075
289.388	3.53829
289.434	3.44598
289.493	3.49357
289.827	3.20666
290.363	2.9269
290.364	2.93071
290.364	2.93452
290.365	2.93832
290.634	2.80823
290.635	2.81204
290.635	2.81585
290.636	2.81966
293.231	2.13089
293.248	2.12093
293.27	2.11073
293.295	2.1004
293.775	1.90553
293.791	1.89519
293.813	1.88485
293.839	1.8745
294.693	1.41459
294.7	1.40219
294.755	1.39414
294.907	1.38353
295.538	1.30724
295.578	1.30271
295.622	1.29795
295.672	1.29306
296.863	1.23624
296.932	1.2411
297.004	1.24585
297.082	1.25034
299.769	1.28952
300.118	1.29544
300.38	1.30609
300.766	1.31707
301.259	1.34527
301.328	1.34906
301.4	1.35286
301.478	1.35665
303.533	1.45526
303.601	1.45631
303.673	1.45725
303.751	1.45794
306.019	1.53039
306.115	1.53037
306.21	1.53035
306.305	1.53033
306.305	1.53033
306.306	1.53414
306.306	1.53795
306.307	1.54176
306.799	1.56179
307.226	1.57672
307.53	1.58671
307.729	1.59806
308.292	1.6344
308.495	1.64893
308.496	1.63436
308.524	1.63746
308.551	1.64031
308.57	1.65695
308.579	1.64305
308.582	1.66535
309.293	1.68806
309.293	1.69389
309.294	1.69947
309.295	1.70493
309.295	1.70493
309.776	1.73032
310.067	1.75817
310.285	1.78906
310.574	1.80913
310.776	1.81945
310.851	1.82593
310.863	1.8341
317.673	2.08683
317.88	2.08656
317.992	2.08499
318.108	2.08075
319.656	2.0527
319.697	2.04818
319.741	2.04341
319.79	2.03852
327.724	2.12998
327.765	2.12723
327.809	2.12436
327.859	2.12124
329.223	1.70639
329.295	1.67987
329.427	1.65286
329.771	1.62738
329.771	1.62738
329.779	1.57422
329.779	1.51964
329.802	1.46429
329.877	1.40885
330.034	1.35396
330.302	1.30029
