Uv/Vis Spectrum: 2- chloro-4-(methyl sulfonyl)benzenamine
Formula: C7H8ClN2O2S
CAS: 13244-35-4
Melting point: 197-197,5
Instrument: SFD-2
Origin: INSTITUTE OF ENERGY PROBLEMS OF CHEMICAL PHYSICS, RAS
Wavelength (nm)	Logarithm epsilon
219.683	3.708
220.683	3.631
221.683	3.571
222.683	3.522
223.683	3.48
224.683	3.442
225.683	3.405
226.683	3.369
227.683	3.333
228.683	3.299
229.683	3.266
230.683	3.238
231.683	3.215
232.683	3.199
233.683	3.193
234.683	3.197
235.683	3.213
236.683	3.241
237.683	3.281
238.683	3.331
239.513	3.366
239.641	3.377
240.641	3.441
241.641	3.493
242.641	3.537
243.641	3.576
244.641	3.614
245.641	3.652
246.641	3.69
247.641	3.73
248.641	3.771
249.641	3.812
250.641	3.854
251.641	3.894
252.641	3.933
253.641	3.969
254.641	4.001
255.641	4.031
256.641	4.058
257.641	4.084
258.607	4.11
259.607	4.138
260.607	4.16
261.607	4.179
262.607	4.194
263.607	4.207
264.607	4.218
265.607	4.226
266.607	4.232
267.607	4.234
268.607	4.232
269.607	4.226
270.607	4.215
271.607	4.2
272.607	4.18
273.607	4.157
274.46	4.138
275.46	4.108
276.46	4.078
277.46	4.048
278.46	4.019
279.46	3.991
280.46	3.963
281.46	3.936
282.46	3.91
283.46	3.885
284.46	3.86
285.46	3.837
286.46	3.814
287.46	3.792
288.46	3.771
289.46	3.751
290.46	3.731
291.46	3.712
292.46	3.694
293.46	3.676
294.46	3.658
295.46	3.641
296.46	3.624
297.39	3.608
298.39	3.595
299.39	3.579
300.39	3.561
301.39	3.54
302.39	3.516
303.39	3.489
304.39	3.458
305.39	3.423
306.39	3.383
307.39	3.336
308.39	3.281
309.39	3.216
