Uv/Vis Spectrum: Benzenebutanamine
Formula: C10H15N
CAS: 13214-66-9
Instrument: unknown
Origin: INSTITUTE OF ENERGY PROBLEMS OF CHEMICAL PHYSICS, RAS
Wavelength (nm)	Logarithm epsilon
230.71	1.512
231.27	1.516
231.87	1.524
232.45	1.535
233.08	1.549
233.56	1.562
234.08	1.578
234.61	1.593
235.14	1.612
235.67	1.626
236.14	1.648
236.61	1.67
237.15	1.69
237.69	1.705
238.24	1.72
238.78	1.731
239.33	1.745
239.81	1.762
240.23	1.782
240.58	1.804
240.92	1.827
241.13	1.85
241.41	1.871
241.62	1.891
242.04	1.906
242.61	1.916
243.24	1.918
243.89	1.92
244.27	1.925
244.46	1.932
244.75	1.949
244.96	1.969
245.32	1.985
245.68	2.001
245.9	2.016
246.12	2.03
246.41	2.045
246.63	2.06
246.85	2.073
247.29	2.088
247.36	2.089
247.44	2.091
247.51	2.091
247.58	2.092
247.66	2.094
247.73	2.096
247.8	2.097
247.88	2.102
248.03	2.106
248.17	2.108
248.32	2.106
248.47	2.103
248.62	2.099
248.77	2.096
248.91	2.096
249.06	2.096
249.21	2.096
249.36	2.096
249.51	2.097
249.66	2.1
249.81	2.103
249.96	2.106
250.11	2.111
250.26	2.115
250.41	2.123
250.56	2.128
250.71	2.134
250.86	2.14
251.02	2.147
251.17	2.155
251.32	2.16
251.46	2.17
251.62	2.181
251.77	2.193
251.93	2.205
252.08	2.215
252.23	2.221
252.38	2.229
252.54	2.234
252.69	2.238
252.84	2.244
253	2.247
253.15	2.253
253.31	2.255
253.46	2.255
253.61	2.253
253.77	2.246
253.92	2.244
254.08	2.243
254.23	2.243
254.39	2.244
254.54	2.246
254.7	2.252
254.86	2.254
255.01	2.254
255.17	2.252
255.32	2.243
255.48	2.238
255.64	2.232
255.79	2.229
255.95	2.228
256.11	2.228
256.27	2.229
256.44	2.231
256.58	2.234
256.74	2.241
256.9	2.25
257.06	2.259
257.2	2.266
257.38	2.274
257.53	2.281
257.69	2.289
257.85	2.299
258.01	2.307
258.17	2.315
258.33	2.321
258.49	2.326
258.65	2.328
258.81	2.328
258.98	2.327
259.14	2.324
259.3	2.32
259.46	2.315
259.62	2.311
259.78	2.308
259.95	2.306
260.11	2.306
260.27	2.306
260.43	2.307
260.6	2.31
260.76	2.316
260.92	2.324
261.09	2.335
261.25	2.343
261.41	2.344
261.53	2.341
261.58	2.334
261.74	2.316
261.91	2.29
262.07	2.27
262.24	2.239
262.4	2.224
262.57	2.214
262.73	2.204
262.9	2.195
263.07	2.191
263.23	2.19
263.4	2.19
263.56	2.193
263.73	2.197
263.9	2.211
264.07	2.217
264.23	2.218
264.4	2.217
264.57	2.208
264.74	2.188
264.91	2.164
265.09	2.142
265.24	2.12
265.41	2.102
265.58	2.083
265.75	2.068
265.92	2.057
266.09	2.053
266.26	2.052
266.43	2.052
266.6	2.055
266.77	2.06
266.94	2.073
267.02	2.084
267.12	2.106
267.27	2.149
267.38	2.184
267.45	2.211
267.55	2.244
267.65	2.257
267.72	2.261
267.8	2.264
267.89	2.265
267.97	2.265
268.06	2.264
268.12	2.26
268.22	2.242
268.32	2.218
268.45	2.183
268.62	2.142
268.79	2.099
269.01	2.041
269.22	1.979
269.44	1.923
269.74	1.849
269.99	1.788
270.23	1.727
270.5	1.665
270.76	1.598
271.03	1.5
271.28	1.453
271.56	1.389
271.82	1.347
272.09	1.302
272.36	1.261
272.62	1.205
272.88	1.167
273.13	1.127
273.43	1.08
273.65	1.034
273.97	0.971
274.15	0.935
274.35	0.901
274.52	0.867
274.9	0.805
275.33	0.728
275.6	0.69
275.8	0.652
276.09	0.587
276.32	0.548
276.62	0.497
276.97	0.427
277.22	0.387
277.53	0.348
277.69	0.319
277.87	0.293
278.11	0.257
278.36	0.22
278.59	0.183
278.94	0.132
