Uv/Vis Spectrum: trans-2-Octene
Formula: C8H16
CAS: 13389-42-9
Melting point: - 87.7
Boiling point: 125
Instrument: n.i.g.
Origin: INSTITUTE OF ENERGY PROBLEMS OF CHEMICAL PHYSICS, RAS
Wavelength (nm)	Logarithm epsilon
170.95	4.088
171.06	4.089
171.17	4.092
171.27	4.093
171.38	4.095
171.49	4.096
171.59	4.097
171.7	4.1
171.81	4.101
172.23	4.11
172.87	4.123
173.51	4.136
174.15	4.149
174.78	4.158
175.42	4.165
176.06	4.171
176.7	4.177
177.34	4.181
177.98	4.183
179.25	4.185
179.89	4.184
180.53	4.176
181.17	4.168
181.8	4.157
182.44	4.144
183.08	4.13
183.72	4.109
184.36	4.092
185	4.077
185.63	4.055
186.27	4.031
186.91	4.006
187.55	3.98
188.19	3.948
188.83	3.914
189.46	3.877
190.1	3.841
190.74	3.806
191.38	3.763
192.02	3.726
192.65	3.686
193.29	3.649
193.93	3.611
194.57	3.57
195.21	3.521
195.85	3.474
196.48	3.423
197.12	3.376
197.76	3.318
198.4	3.274
199.04	3.224
199.67	3.171
200.31	3.117
200.95	3.07
201.59	3.003
202.23	2.941
202.87	2.869
203.5	2.806
204.14	2.732
204.71	2.663
205.3	2.594
206.09	2.498
206.7	2.434
207.33	2.377
