Uv/Vis Spectrum: Cinnamaldehyde oxime
Formula: C9H9NO
CAS: 13372-81-1
Melting point: 118-120
Instrument: n.i.g.
Origin: INSTITUTE OF ENERGY PROBLEMS OF CHEMICAL PHYSICS, RAS
Wavelength (nm)	Logarithm epsilon
237.71	3.858
237.96	3.84
238.3	3.802
238.6	3.767
238.9	3.719
239.2	3.676
239.5	3.64
239.73	3.612
240	3.581
240.31	3.55
240.7	3.518
241	3.506
241.31	3.494
241.61	3.482
241.92	3.47
242.22	3.458
242.53	3.451
242.84	3.443
243.15	3.435
243.46	3.431
243.77	3.427
244.08	3.419
244.39	3.415
244.7	3.415
245.02	3.411
245.33	3.411
245.64	3.411
245.96	3.411
246.28	3.411
246.59	3.411
246.91	3.415
247.23	3.419
247.55	3.419
247.87	3.423
248.19	3.427
248.52	3.435
248.84	3.439
249.16	3.443
249.49	3.451
249.81	3.458
250.14	3.466
250.47	3.478
250.8	3.494
251.12	3.502
251.45	3.518
251.79	3.526
252.12	3.538
252.45	3.553
252.78	3.561
253.12	3.577
253.45	3.589
253.79	3.601
254.13	3.617
254.46	3.628
254.8	3.642
255.14	3.652
255.48	3.664
255.83	3.676
256.17	3.688
256.51	3.7
256.86	3.711
257.2	3.723
257.55	3.731
257.89	3.739
258.24	3.755
258.59	3.763
258.94	3.775
259.29	3.787
259.64	3.802
260	3.814
260.35	3.822
260.7	3.83
261.06	3.838
261.42	3.85
261.77	3.862
262.13	3.87
262.49	3.881
262.85	3.889
263.21	3.905
263.58	3.913
263.94	3.925
264.31	3.933
264.67	3.945
265.04	3.953
265.41	3.964
265.77	3.976
266.14	3.984
266.51	3.996
266.89	4.008
267.26	4.016
267.63	4.024
267.91	4.031
268.41	4.043
268.76	4.051
269.14	4.063
269.52	4.067
269.9	4.079
270.28	4.087
270.66	4.095
271.04	4.103
271.43	4.111
271.81	4.119
272.2	4.126
272.59	4.134
272.98	4.142
273.31	4.151
273.76	4.158
274.15	4.162
274.56	4.172
274.94	4.178
275.33	4.182
275.71	4.192
276.13	4.198
276.51	4.205
276.93	4.209
277.33	4.217
277.73	4.221
278.16	4.226
278.54	4.233
278.95	4.237
279.35	4.245
279.76	4.249
280.17	4.257
280.58	4.261
280.99	4.265
281.41	4.27
281.81	4.274
282.21	4.279
282.65	4.281
283.07	4.285
283.49	4.292
283.91	4.296
284.33	4.296
284.76	4.3
285.18	4.308
285.61	4.312
286.03	4.316
286.46	4.32
286.89	4.32
287.32	4.324
287.76	4.324
288.19	4.328
288.62	4.332
289.06	4.332
289.5	4.336
289.94	4.336
290.38	4.336
290.82	4.336
291.26	4.34
291.7	4.34
292.15	4.34
292.6	4.34
293.04	4.344
293.49	4.344
293.94	4.344
294.4	4.344
294.85	4.34
295.3	4.34
295.76	4.34
296.22	4.34
296.68	4.34
297.14	4.34
297.6	4.336
298.06	4.336
298.53	4.332
299	4.332
299.46	4.328
299.93	4.324
300.4	4.32
300.88	4.316
301.35	4.312
301.83	4.308
302.3	4.304
302.78	4.296
303.26	4.292
303.74	4.285
304.22	4.277
304.71	4.269
305.19	4.261
305.68	4.257
306.17	4.245
306.66	4.241
307.15	4.225
307.65	4.217
308.14	4.209
308.64	4.202
309.14	4.19
309.64	4.182
310.14	4.17
310.64	4.162
311.15	4.15
311.66	4.138
312.16	4.126
312.68	4.115
313.19	4.103
313.7	4.091
314.22	4.075
314.73	4.063
315.25	4.051
315.77	4.036
316.29	4.024
316.8	4.012
317.34	4
317.87	3.988
318.4	3.968
318.93	3.949
319.45	3.925
320.01	3.901
320.53	3.877
321.07	3.862
321.61	3.842
322.13	3.818
322.73	3.79
323.24	3.763
323.79	3.731
324.33	3.696
324.88	3.672
325.44	3.64
325.99	3.613
326.55	3.577
327.07	3.541
327.67	3.486
328.23	3.431
328.79	3.364
329.36	3.253
329.93	3.198
330.5	3.079
331.07	2.964
331.64	2.854
332.22	2.783
332.8	2.676
333.37	2.597
333.96	2.514
334.54	2.451
335.13	2.419
335.71	2.364
336.3	2.304
336.9	2.257
337.43	2.219
338.09	2.178
338.69	2.142
339.29	2.103
339.83	2.07
340.49	2.036
341.01	2.013
341.71	1.988
342.32	1.96
342.93	1.937
343.55	1.909
344.17	1.885
344.79	1.862
345.41	1.838
345.99	1.817
346.74	1.794
347.29	1.775
347.92	1.751
348.56	1.731
349.19	1.711
349.83	1.692
350.47	1.676
351.11	1.66
351.76	1.64
352.41	1.628
353.06	1.613
353.38	1.609
353.71	1.605
354.04	1.597
354.37	1.593
354.69	1.589
355.02	1.581
