Uv/Vis Spectrum: Pyridine, 2-[2-(3-pyridinyl)ethenyl]-, (E)-
Formula: C12H10N2
CAS: 13362-75-9
Melting point: 72
Instrument: Zeiss PMQII
Origin: INSTITUTE OF ENERGY PROBLEMS OF CHEMICAL PHYSICS, RAS
Wavelength (nm)	Logarithm epsilon
200.73	4.161
200.82	4.157
200.9	4.155
200.99	4.152
201.08	4.15
201.16	4.146
201.25	4.144
201.34	4.142
201.42	4.14
201.51	4.135
201.6	4.133
201.68	4.131
201.77	4.129
201.95	4.12
202.38	4.103
202.82	4.086
203.26	4.069
203.71	4.048
204.15	4.027
204.6	4.003
205.05	3.986
205.5	3.975
205.95	3.965
206.41	3.954
206.87	3.948
207.33	3.935
207.79	3.93
208.25	3.926
208.72	3.924
209.18	3.922
209.65	3.918
210.12	3.916
210.6	3.916
211.07	3.913
211.55	3.913
212.03	3.913
212.51	3.913
213	3.911
213.49	3.911
213.97	3.911
214.47	3.913
214.96	3.913
215.46	3.913
215.95	3.916
216.45	3.92
216.96	3.922
217.46	3.924
217.97	3.926
218.48	3.93
218.99	3.926
219.51	3.924
220.02	3.922
220.54	3.913
221.07	3.903
221.59	3.894
222.12	3.881
222.65	3.866
223.18	3.856
223.71	3.841
224.25	3.828
224.79	3.819
225.33	3.811
225.88	3.807
226.42	3.79
226.97	3.762
227.53	3.73
228.08	3.696
228.64	3.651
229.2	3.606
229.77	3.565
230.33	3.516
230.9	3.465
231.47	3.448
232.05	3.42
232.63	3.407
233.21	3.403
233.79	3.395
234.38	3.388
234.97	3.384
235.56	3.386
236.16	3.388
236.76	3.399
237.36	3.416
237.96	3.435
238.57	3.45
239.18	3.469
239.79	3.491
240.41	3.51
241.03	3.531
241.66	3.553
242.28	3.578
242.91	3.6
243.55	3.623
244.18	3.649
244.82	3.666
245.47	3.691
246.11	3.713
246.76	3.734
247.42	3.755
248.07	3.777
248.74	3.8
249.4	3.819
250.07	3.841
250.74	3.862
251.41	3.883
252.09	3.903
252.77	3.922
253.46	3.941
254.15	3.958
254.84	3.977
255.54	3.994
256.24	4.012
256.95	4.027
257.66	4.044
258.37	4.059
259.08	4.073
259.81	4.088
260.53	4.099
261.26	4.116
261.99	4.127
262.73	4.14
263.47	4.148
264.21	4.159
264.96	4.167
265.72	4.172
266.48	4.18
267.24	4.182
268.01	4.189
268.78	4.191
269.55	4.195
270.33	4.197
271.12	4.199
271.91	4.197
272.7	4.193
273.5	4.191
274.3	4.189
275.11	4.182
275.92	4.178
276.74	4.176
277.56	4.17
278.39	4.167
279.22	4.165
280.06	4.161
280.9	4.159
281.75	4.159
282.6	4.159
283.46	4.159
284.32	4.159
285.19	4.159
286.06	4.159
286.94	4.165
287.83	4.167
288.72	4.17
289.61	4.178
290.51	4.187
291.42	4.195
292.33	4.202
293.25	4.21
294.17	4.221
295.1	4.229
296.04	4.238
296.98	4.246
297.93	4.253
298.88	4.263
299.84	4.272
300.81	4.283
301.78	4.291
302.76	4.3
303.74	4.308
304.73	4.317
305.73	4.325
306.73	4.334
307.74	4.345
308.76	4.353
309.78	4.355
310.82	4.362
311.85	4.362
312.9	4.357
313.95	4.355
315.01	4.347
316.07	4.336
317.15	4.325
318.23	4.313
319.32	4.293
320.41	4.278
321.51	4.261
322.63	4.238
323.74	4.208
324.87	4.187
326	4.178
327.15	4.165
328.3	4.135
329.45	4.101
330.62	4.061
331.79	4.012
332.98	3.954
334.17	3.886
335.37	3.798
336.58	3.691
337.75	3.556
338.66	3.433
339.39	3.321
340.12	3.175
340.64	3.049
341.5	2.833
341.75	2.78
342	2.739
342.25	2.686
