Uv/Vis Spectrum: 2,5,8-trihydroxy-1,4-naphthalenedione
Formula: C10H6O5
CAS: 13379-22-1
Melting point: 222
Instrument: Zeiss DMR 21
Origin: INSTITUTE OF ENERGY PROBLEMS OF CHEMICAL PHYSICS, RAS
Wavelength (nm)	Logarithm epsilon
253.151	3.61
254.154	3.608
255.154	3.584
256.154	3.565
257.154	3.551
258.154	3.54
259.154	3.533
260.154	3.53
261.154	3.53
262.154	3.533
263.154	3.538
264.154	3.546
265.154	3.556
266.154	3.568
267.154	3.581
268.154	3.596
269.154	3.611
270.154	3.628
271.154	3.646
272.154	3.664
273.154	3.683
274.154	3.702
275.154	3.721
276.154	3.74
277.154	3.759
278.154	3.778
279.154	3.796
280.154	3.814
281.154	3.831
282.154	3.847
283.154	3.862
284.154	3.877
285.154	3.89
286.154	3.902
287.154	3.913
288.154	3.923
289.154	3.931
290.154	3.938
291.154	3.943
292.154	3.947
293.154	3.949
294.154	3.95
295.154	3.948
296.154	3.945
297.154	3.94
298.154	3.933
299.154	3.925
300.154	3.914
301.154	3.901
302.154	3.886
303.154	3.869
304.154	3.849
305.154	3.828
305.322	3.828
306.322	3.794
307.322	3.765
308.322	3.739
309.322	3.713
310.322	3.686
311.322	3.656
312.322	3.623
313.322	3.586
314.322	3.545
315.322	3.499
316.322	3.45
317.322	3.398
318.322	3.342
319.322	3.284
320.322	3.225
321.322	3.166
322.322	3.107
323.322	3.049
324.322	2.993
325.322	2.94
326.322	2.89
327.322	2.845
328.322	2.803
329.322	2.766
330.322	2.732
330.906	2.707
331.906	2.68
332.906	2.659
333.906	2.642
334.906	2.63
335.906	2.621
336.906	2.617
337.906	2.615
338.906	2.616
339.906	2.619
340.906	2.624
341.906	2.632
342.906	2.64
343.906	2.65
344.906	2.661
345.906	2.672
346.906	2.684
347.906	2.697
348.906	2.709
349.906	2.722
350.906	2.735
351.906	2.747
352.906	2.76
353.906	2.772
354.906	2.783
355.906	2.795
356.906	2.806
357.906	2.816
358.906	2.826
359.906	2.835
360.906	2.844
361.906	2.852
362.906	2.86
363.906	2.868
364.906	2.875
365.906	2.881
366.906	2.888
367.906	2.894
368.906	2.9
369.906	2.905
370.906	2.91
371.037	2.913
372.037	2.916
373.037	2.92
374.037	2.925
375.037	2.93
376.037	2.936
377.037	2.942
378.037	2.948
379.037	2.955
380.037	2.961
381.037	2.968
382.037	2.974
383.037	2.98
384.037	2.986
385.037	2.992
386.037	2.997
387.037	3.003
388.037	3.008
389.037	3.013
390.037	3.018
391.037	3.023
392.037	3.027
393.037	3.032
394.037	3.037
395.037	3.041
396.037	3.046
397.037	3.051
398.037	3.056
399.037	3.061
400.037	3.067
401.037	3.072
402.037	3.078
403.037	3.085
404.037	3.091
405.037	3.098
406.037	3.106
407.037	3.113
408.037	3.121
409.037	3.13
410.037	3.138
411.037	3.147
412.037	3.155
413.037	3.164
414.037	3.172
415.037	3.181
416.037	3.188
417.083	3.199
418.083	3.208
419.083	3.217
420.083	3.227
421.083	3.236
422.083	3.246
423.083	3.256
424.083	3.266
425.083	3.275
426.083	3.285
427.083	3.296
428.083	3.306
429.083	3.316
430.083	3.326
431.083	3.336
432.083	3.347
433.083	3.357
434.083	3.367
435.083	3.378
436.083	3.388
437.083	3.398
438.083	3.409
439.083	3.419
440.083	3.429
441.083	3.44
442.083	3.45
443.083	3.46
444.083	3.47
445.083	3.481
446.083	3.491
447.083	3.501
448.083	3.511
449.083	3.521
450.083	3.53
450.798	3.541
451.798	3.548
452.798	3.556
453.798	3.565
454.798	3.573
455.798	3.583
456.798	3.592
457.798	3.601
458.798	3.611
459.798	3.62
460.798	3.629
461.798	3.638
462.798	3.646
463.798	3.654
464.798	3.662
465.798	3.669
466.798	3.675
467.798	3.682
468.798	3.687
469.798	3.693
470.798	3.698
471.798	3.702
472.798	3.706
473.798	3.71
474.798	3.714
475.798	3.717
476.798	3.72
477.798	3.723
478.798	3.725
479.798	3.728
480.798	3.73
481.798	3.732
482.798	3.735
483.798	3.737
484.798	3.739
485.798	3.741
486.798	3.744
487.798	3.746
488.798	3.749
489.798	3.751
490.798	3.754
491.798	3.756
492.798	3.759
493.798	3.761
494.798	3.764
495.798	3.767
496.798	3.769
497.798	3.771
498.798	3.773
499.798	3.775
500.798	3.776
501.798	3.777
502.798	3.778
503.798	3.778
504.798	3.777
505.798	3.775
506.798	3.773
507.798	3.769
508.798	3.764
509.798	3.758
510.798	3.751
511.798	3.742
511.999	3.74
512.999	3.734
513.999	3.72
514.999	3.701
515.999	3.681
516.999	3.662
517.999	3.646
518.999	3.633
519.999	3.625
520.999	3.621
521.999	3.62
522.999	3.621
523.999	3.621
524.999	3.619
526.022	3.611
527.022	3.606
528.022	3.601
529.022	3.596
530.022	3.591
531.022	3.587
532.022	3.582
533.022	3.579
534.022	3.575
535.022	3.572
536.022	3.569
537.022	3.567
537.582	3.566
538.582	3.561
539.582	3.557
540.582	3.554
541.582	3.55
542.582	3.545
543.582	3.539
544.582	3.531
545.582	3.52
546.582	3.505
547.582	3.487
548.582	3.465
549.582	3.438
550.582	3.406
551.582	3.37
552.582	3.328
553.582	3.28
554.582	3.227
555.582	3.168
556.5	3.11
557.5	3.039
558.5	2.969
559.5	2.9
560.5	2.83
561.5	2.761
562.5	2.693
563.5	2.624
564.5	2.556
565.5	2.489
566.5	2.421
567.5	2.354
568.5	2.288
569.5	2.221
569.67	2.21
570.67	2.13
571.67	2.043
572.67	1.952
573.67	1.862
574.67	1.775
