Uv/Vis Spectrum: 8-methyl-2,4(1H,3H)-pteridinedione
Formula: C7H6N4O2
CAS: 13300-38-4
Melting point: dec. 260
Instrument: Cary 1115/15
Origin: INSTITUTE OF ENERGY PROBLEMS OF CHEMICAL PHYSICS, RAS
Wavelength (nm)	Logarithm epsilon
223.223	3.662
224.723	3.676
226.223	3.695
227.723	3.716
229.223	3.739
230.723	3.764
232.223	3.79
233.723	3.817
235.223	3.844
236.723	3.873
238.223	3.901
239.723	3.931
241.223	3.961
242.723	3.991
244.223	4.021
245.723	4.051
247.223	4.081
248.723	4.108
250.223	4.134
251.723	4.157
253.223	4.175
254.723	4.188
256.223	4.195
257.723	4.194
259.223	4.185
260.723	4.168
262.223	4.141
263.723	4.105
265.339	4.078
265.488	4.074
266.988	4.045
268.488	4.016
269.988	3.991
271.488	3.971
272.988	3.954
274.488	3.937
275.988	3.915
277.488	3.884
278.988	3.839
280.488	3.778
281.988	3.698
283.488	3.601
284.988	3.488
286.488	3.366
287.988	3.243
289.488	3.131
289.541	3.128
291.041	3.051
292.541	2.983
294.041	2.927
295.541	2.881
297.041	2.846
298.541	2.821
300.041	2.805
301.541	2.797
303.041	2.796
304.541	2.801
306.041	2.811
307.541	2.824
309.041	2.84
310.541	2.858
312.041	2.877
313.541	2.896
315.041	2.916
316.541	2.936
318.041	2.956
319.541	2.976
321.041	2.996
322.541	3.017
324.041	3.039
325.541	3.061
327.041	3.085
328.541	3.109
330.041	3.134
331.119	3.147
332.619	3.17
334.119	3.194
335.619	3.218
337.119	3.242
338.619	3.266
340.119	3.291
341.619	3.316
343.119	3.341
344.619	3.367
346.119	3.393
347.619	3.42
349.119	3.447
350.619	3.475
352.119	3.503
353.619	3.531
355.119	3.56
356.619	3.589
358.119	3.618
359.619	3.646
361.119	3.674
362.619	3.702
364.119	3.728
365.619	3.754
367.119	3.778
368.619	3.801
370.119	3.821
371.619	3.84
373.119	3.857
374.619	3.872
376.119	3.885
377.619	3.896
378.539	3.902
380.039	3.909
381.539	3.916
383.039	3.923
384.539	3.93
386.039	3.936
387.539	3.941
389.039	3.946
390.539	3.95
392.039	3.953
393.539	3.955
395.039	3.955
396.539	3.954
398.039	3.952
399.539	3.947
401.039	3.941
402.539	3.933
404.039	3.924
405.539	3.912
407.039	3.9
408.539	3.885
410.039	3.869
411.539	3.851
413.039	3.832
414.539	3.81
416.039	3.787
417.539	3.762
419.039	3.735
420.539	3.705
422.039	3.672
423.539	3.634
423.897	3.623
425.397	3.589
426.897	3.546
428.397	3.497
429.897	3.444
431.397	3.389
432.897	3.331
434.397	3.27
435.897	3.206
437.397	3.138
438.897	3.064
440.397	2.984
441.897	2.895
