Uv/Vis Spectrum: Methanone, (4-chlorophenyl)phenyl-
Formula: C13H9ClO
CAS: 134-85-0
Melting point: 75-77
Instrument: Unicam SP 700
Origin: INSTITUTE OF ENERGY PROBLEMS OF CHEMICAL PHYSICS, RAS
Wavelength (nm)	Logarithm epsilon
209.59	4.267
209.92	4.254
210.37	4.242
210.77	4.229
211.94	4.202
213.12	4.171
214.3	4.137
215.48	4.103
216.65	4.065
217.83	4.024
219.01	3.98
220.18	3.943
221.36	3.902
222.54	3.864
223.72	3.83
224.89	3.799
226.07	3.779
227.25	3.765
228.43	3.758
229.6	3.755
230.78	3.758
231.96	3.769
233.14	3.786
234.31	3.806
235.49	3.837
236.67	3.871
237.85	3.908
239.02	3.943
240.2	3.987
241.38	4.024
242.56	4.058
243.73	4.093
244.91	4.123
246.09	4.154
247.27	4.181
248.44	4.212
249.62	4.232
250.8	4.256
251.98	4.273
253.15	4.29
254.33	4.297
255.51	4.304
256.69	4.304
257.86	4.297
259.04	4.29
260.22	4.273
261.4	4.25
262.57	4.226
263.75	4.195
264.93	4.164
266.11	4.127
267.28	4.089
268.46	4.052
269.64	4.011
270.82	3.963
271.99	3.919
273.17	3.871
274.35	3.82
275.52	3.769
276.7	3.711
277.88	3.653
279.06	3.601
280.25	3.539
281.23	3.484
282.26	3.425
283.47	3.362
284.69	3.297
286	3.228
287.3	3.154
288.3	3.078
289.65	2.984
290.65	2.894
292.01	2.762
293.19	2.629
294.36	2.493
295.54	2.353
296.72	2.254
297.9	2.165
299.07	2.097
300.25	2.029
301.43	1.967
302.61	1.92
303.78	1.882
304.96	1.865
306.14	1.855
307.32	1.865
308.49	1.868
309.67	1.886
310.85	1.903
312.03	1.92
313.2	1.937
314.38	1.954
315.56	1.971
316.74	1.988
317.91	2.005
319.09	2.022
320.27	2.036
321.45	2.049
322.62	2.059
323.8	2.07
324.98	2.08
326.16	2.088
327.33	2.097
328.51	2.104
329.69	2.114
330.87	2.124
332.04	2.131
333.22	2.141
334.4	2.152
335.57	2.158
336.75	2.158
337.93	2.162
339.11	2.165
340.28	2.169
341.46	2.172
342.64	2.172
343.82	2.169
344.99	2.165
346.17	2.162
347.35	2.158
348.53	2.145
349.7	2.138
350.88	2.128
352.06	2.121
353.24	2.107
354.41	2.094
355.59	2.087
356.77	2.073
357.95	2.059
359.12	2.049
360.3	2.036
361.48	2.022
362.66	2.005
363.83	1.988
365.01	1.967
366.19	1.95
367.37	1.933
368.54	1.913
369.72	1.892
370.9	1.875
372.03	1.857
373.25	1.838
374.43	1.814
375.48	1.796
376.79	1.773
377.96	1.752
379.14	1.732
380.32	1.712
381.47	1.69
382.71	1.666
383.85	1.647
