Uv/Vis Spectrum: 1-Naphthalenamine
Formula: C10H9N
CAS: 134-32-7
Melting point: 49.2
Boiling point: 300.8
Instrument: n.i.g.
Origin: INSTITUTE OF ENERGY PROBLEMS OF CHEMICAL PHYSICS, RAS
Wavelength (nm)	Logarithm epsilon
220.01	4.36984
220.514	4.35926
221.042	4.34869
221.58	4.33811
224.077	4.28071
224.423	4.27665
224.768	4.27248
225.113	4.26809
231.834	4.26457
232.689	4.27339
233.555	4.28199
234.443	4.29047
237.546	4.31081
238.713	4.32202
239.388	4.32613
240.148	4.32667
244.81	4.30022
244.958	4.29605
245.117	4.29165
245.298	4.28714
247.843	4.22723
248.186	4.21953
248.529	4.21161
248.872	4.20357
249.873	4.14378
249.932	4.1361
250.013	4.1282
250.104	4.12018
251.332	4.02926
251.338	4.03779
251.344	4.04632
251.351	4.05485
251.855	3.93689
251.936	3.94157
252.007	3.93287
252.319	3.95091
252.732	3.83647
252.737	3.84349
252.743	3.85052
252.748	3.85754
253.168	3.75313
253.175	3.76202
253.181	3.77068
253.188	3.77923
253.905	3.67279
253.979	3.68581
254.076	3.69872
254.183	3.71141
254.653	3.6075
254.781	3.57636
254.921	3.54511
255.082	3.51363
255.51	3.42027
255.52	3.4343
255.531	3.44822
255.541	3.46191
255.718	3.36556
255.974	3.37156
256.24	3.37756
256.482	3.32134
256.529	3.38356
256.625	3.30927
256.778	3.29708
256.953	3.28467
257.435	3.19632
257.443	3.20684
257.451	3.21725
257.458	3.22743
257.867	3.10797
257.876	3.12001
257.885	3.13206
257.894	3.1441
258.365	3.04019
258.669	3.02712
258.995	3.01405
259.332	3.00098
259.831	2.93571
260.07	2.92299
260.31	2.91006
260.549	2.89701
265.203	2.86003
266.701	2.87748
267.576	2.8903
268.577	2.90945
270.715	2.97152
271.102	2.99358
271.38	3.00306
271.788	3.00807
274.131	3.07814
274.553	3.0895
274.996	3.10064
275.451	3.11166
278.095	3.18422
278.72	3.21138
280.182	3.24539
281.908	3.27827
283.327	3.30204
283.865	3.30873
287.049	3.37072
287.618	3.38942
288.025	3.39889
288.62	3.40723
290.697	3.45374
291.144	3.46058
291.693	3.46953
292.808	3.47967
294.388	3.52923
294.642	3.53523
294.895	3.54123
295.149	3.54724
295.149	3.54724
295.598	3.54906
296.048	3.55066
296.497	3.55215
298.819	3.59363
299.586	3.60059
300.375	3.60756
301.175	3.61452
304.284	3.64289
305.397	3.64632
306.533	3.64975
307.679	3.65317
307.679	3.65317
308.429	3.65813
308.945	3.66259
309.309	3.67307
309.484	3.66694
310.033	3.67106
311.697	3.68692
314.577	3.69568
317.682	3.70033
320.746	3.70183
320.913	3.70135
321.573	3.69879
322.255	3.69623
322.949	3.69367
323.502	3.70115
323.502	3.70115
323.651	3.69763
323.81	3.6941
323.992	3.69058
329.164	3.67965
329.759	3.67557
330.353	3.67138
330.947	3.66697
334.297	3.61704
334.789	3.60682
335.292	3.59637
335.817	3.58581
338.365	3.52841
338.758	3.51885
339.162	3.50929
339.588	3.49972
340.912	3.47102
341.215	3.4573
341.54	3.44335
341.877	3.4293
343.435	3.38201
343.737	3.36643
344.061	3.35085
344.397	3.33527
345.901	3.28297
345.954	3.27455
346.358	3.26242
347.46	3.23618
348.422	3.18945
348.86	3.17828
349.019	3.16424
349.984	3.14768
350.443	3.09546
350.783	3.08339
351.123	3.07132
351.462	3.05925
352.967	3.00695
353.108	2.99324
353.26	2.97931
353.434	2.96527
354.441	2.913
354.582	2.89929
354.734	2.88536
354.908	2.87132
