Uv/Vis Spectrum: Benzil
Formula: C14H10O2
CAS: 134-81-6
Melting point: 94.8
Boiling point: 347
Instrument: Beckman DU
Origin: INSTITUTE OF ENERGY PROBLEMS OF CHEMICAL PHYSICS, RAS
Wavelength (nm)	Logarithm epsilon
214.001	4.03988
214.858	4.02961
215.531	4.02302
216.043	4.02297
216.879	4.0127
218.761	4.00558
220.11	3.99893
220.969	3.99884
222.993	3.99171
232.531	3.99402
234.743	4.00073
235.42	4.00718
236.608	4.01073
237.121	4.0172
238.145	4.02077
238.475	4.02726
239.151	4.03085
240.874	4.04739
241.366	4.0506
241.88	4.06074
242.393	4.06436
243.256	4.08098
243.769	4.0846
244.098	4.09108
244.611	4.09429
244.96	4.10119
245.126	4.11136
245.64	4.11823
245.987	4.11453
246.154	4.12796
246.499	4.11448
246.831	4.13482
247.016	4.13807
247.343	4.13477
254.343	4.21884
254.672	4.22533
255.021	4.22896
255.534	4.23543
256.21	4.23903
257.071	4.24546
260.797	4.24835
261.818	4.24173
262.677	4.23839
263.351	4.23139
266.229	4.20054
267.085	4.18701
267.595	4.18003
268.94	4.15626
269.103	4.15624
269.45	4.14969
270.121	4.13577
272.158	4.09522
272.483	4.08826
272.993	4.07802
273.502	4.06778
273.686	4.06776
274.194	4.05426
274.52	4.0473
274.683	4.04729
276.882	3.9998
277.39	3.9863
278.083	3.97278
278.409	3.96908
278.919	3.96251
279.264	3.95229
279.428	3.95227
279.774	3.94205
279.937	3.94203
281.28	3.91133
281.627	3.90804
281.974	3.90108
282.298	3.89086
282.462	3.89084
282.808	3.88429
283.155	3.87732
283.479	3.8671
283.664	3.86708
283.988	3.85686
284.173	3.85684
284.498	3.84662
284.844	3.84007
286.37	3.80609
286.695	3.79587
286.859	3.79586
287.204	3.78564
287.368	3.78562
287.714	3.77866
288.06	3.76843
288.569	3.7582
289.055	3.74144
289.4	3.72796
289.565	3.7312
290.927	3.69724
291.252	3.68702
291.436	3.687
291.945	3.6735
292.269	3.66328
292.616	3.65632
293.123	3.63956
293.449	3.6326
294.139	3.61216
295.826	3.56472
295.99	3.5647
296.659	3.541
296.823	3.54098
297.513	3.51728
298.346	3.49356
299.87	3.44939
300.215	3.43917
300.378	3.43549
301.048	3.41178
301.211	3.41177
301.718	3.39134
301.902	3.39132
302.409	3.3713
302.572	3.37129
304.765	3.29975
305.091	3.2932
305.781	3.27276
305.945	3.27274
306.288	3.25559
306.452	3.25557
306.798	3.24535
307.123	3.2388
309.319	3.18071
309.665	3.17416
309.99	3.16394
310.175	3.16392
310.499	3.15044
310.845	3.14348
311.17	3.13326
311.353	3.12998
311.678	3.11976
312.024	3.11279
313.366	3.07884
313.712	3.06861
314.058	3.06206
314.383	3.05184
314.729	3.04488
315.075	3.03832
315.562	3.02116
315.746	3.02114
316.071	3.01092
316.417	3.00436
316.581	3.00435
318.27	2.96669
321.325	2.90566
323.689	2.86468
324.035	2.85771
324.199	2.8577
324.708	2.84746
325.054	2.8409
325.38	2.83761
326.053	2.82736
326.4	2.82365
327.073	2.8134
327.584	2.81009
329.788	2.78623
330.298	2.77925
331.156	2.77265
331.667	2.76893
332.34	2.75908
333.176	2.74881
333.849	2.73856
336.236	2.71101
336.563	2.70772
336.91	2.70443
337.256	2.69746
337.766	2.69049
338.438	2.67697
338.602	2.67695
339.457	2.66016
339.621	2.66014
339.967	2.65318
341.983	2.61223
342.329	2.60568
342.655	2.59871
342.839	2.5987
343.164	2.58848
343.673	2.57824
343.857	2.57822
344.182	2.568
344.529	2.56144
344.691	2.55776
345.363	2.54425
345.873	2.53767
347.911	2.50365
348.237	2.49669
348.747	2.48971
349.948	2.46595
350.784	2.45242
351.131	2.44913
351.457	2.44217
351.804	2.43887
354.17	2.40807
354.843	2.39782
355.354	2.39451
356.047	2.38425
356.537	2.37727
356.884	2.37398
357.394	2.367
357.741	2.3637
360.456	2.33654
361.292	2.32627
361.965	2.31601
362.639	2.30902
363.333	2.30243
364.007	2.29869
364.517	2.29212
366.723	2.27153
367.559	2.26125
368.254	2.25793
368.765	2.25421
369.438	2.24762
369.948	2.24064
370.623	2.23731
370.949	2.23361
374.176	2.2064
374.687	2.20309
375.361	2.19935
376.567	2.19271
377.241	2.18572
378.263	2.18235
378.937	2.17536
383.006	2.16151
384.704	2.15808
386.237	2.15099
388.793	2.14055
391.002	2.13707
391.84	2.13373
392.862	2.1267
396.767	2.1092
397.788	2.10257
399.322	2.09875
400.159	2.09215
400.67	2.08884
403.736	2.07142
404.738	2.06806
405.248	2.06108
406.27	2.05772
406.781	2.054
407.803	2.04738
408.312	2.0404
414.581	1.98231
415.091	1.97533
415.438	1.97204
417.805	1.94491
418.151	1.93795
418.478	1.93465
419.335	1.92438
419.845	1.9174
420.171	1.91411
420.517	1.90715
421.191	1.90056
421.538	1.89686
424.067	1.86278
424.577	1.85621
424.924	1.85251
425.597	1.84266
425.944	1.83896
426.616	1.82544
427.289	1.81519
428.145	1.80165
428.472	1.79836
430.511	1.76759
430.836	1.76063
431.346	1.75406
431.692	1.7471
432.04	1.74381
432.366	1.74011
432.712	1.73355
433.039	1.72985
433.384	1.72003
433.731	1.71633
434.057	1.70978
434.241	1.70976
436.258	1.67207
436.767	1.66183
437.115	1.6618
437.624	1.65156
438.133	1.64132
438.642	1.63149
439.131	1.62125
439.315	1.62123
439.641	1.61427
439.987	1.60731
442.35	1.56306
443.023	1.55322
443.369	1.54625
443.714	1.53603
444.549	1.51883
445.568	1.50202
446.077	1.49178
453.187	1.35904
454.205	1.34223
454.531	1.33527
454.715	1.33525
455.041	1.32829
457.913	1.2738
458.606	1.26029
459.116	1.25372
459.44	1.2435
459.604	1.24348
460.113	1.23324
460.459	1.22302
460.806	1.21972
461.314	1.20582
461.64	1.20253
