Uv/Vis Spectrum: dl-Phenmetrazine hydrochloride
Formula: C11H15NO
CAS: 134-49-6
Melting point: 173-178
Instrument: Zeiss VSU-1
Origin: INSTITUTE OF ENERGY PROBLEMS OF CHEMICAL PHYSICS, RAS
Wavelength (nm)	Logarithm epsilon
211.11	3.652
211.41	3.639
211.69	3.618
212	3.596
212.23	3.573
212.46	3.546
212.63	3.525
212.79	3.508
212.96	3.488
213.13	3.471
213.3	3.447
213.43	3.425
213.64	3.395
213.8	3.368
213.97	3.337
214.14	3.313
214.31	3.293
214.42	3.269
214.58	3.242
214.74	3.21
214.96	3.159
215.15	3.102
215.32	3.064
215.48	3.031
215.66	2.996
215.82	2.968
216.02	2.921
216.16	2.892
216.33	2.866
216.5	2.832
216.67	2.791
216.84	2.76
217	2.726
217.17	2.688
217.34	2.647
217.51	2.599
217.67	2.54
217.85	2.47
218.01	2.429
218.18	2.395
218.35	2.36
218.52	2.313
218.69	2.278
218.86	2.234
219.02	2.193
219.19	2.152
219.36	2.108
219.53	2.073
219.7	2.036
219.87	1.971
220.03	1.93
220.2	1.896
220.37	1.862
220.54	1.821
220.71	1.79
220.88	1.749
220.98	1.726
221.14	1.697
221.38	1.664
221.55	1.636
221.72	1.626
221.89	1.612
222.05	1.592
222.22	1.578
222.39	1.571
222.56	1.558
222.71	1.544
222.88	1.532
223.06	1.517
223.23	1.51
223.36	1.498
223.57	1.482
223.74	1.476
223.91	1.469
224.07	1.462
224.24	1.448
224.41	1.438
224.58	1.418
224.75	1.407
224.92	1.404
225.08	1.394
225.28	1.387
225.44	1.384
225.56	1.381
225.76	1.377
225.93	1.373
226.09	1.37
226.26	1.363
226.43	1.36
226.6	1.356
226.77	1.353
226.94	1.353
227.1	1.353
227.27	1.353
227.44	1.354
227.61	1.356
227.8	1.358
227.95	1.36
228.1	1.364
228.31	1.368
228.63	1.374
229.05	1.381
229.53	1.392
229.95	1.401
230.3	1.407
230.47	1.411
230.65	1.416
230.87	1.424
231.14	1.431
231.31	1.435
231.48	1.438
231.65	1.445
231.82	1.448
231.97	1.455
232.15	1.462
232.32	1.469
232.49	1.472
232.66	1.476
232.83	1.482
233	1.486
233.16	1.489
233.35	1.497
233.5	1.503
233.68	1.509
233.84	1.517
234.01	1.52
234.18	1.523
234.37	1.531
234.51	1.537
234.68	1.541
234.86	1.548
235.02	1.554
235.16	1.561
235.35	1.568
235.52	1.571
235.69	1.578
235.86	1.584
236.03	1.592
236.2	1.595
236.38	1.602
236.53	1.609
236.7	1.619
236.87	1.626
237.04	1.633
237.21	1.64
237.37	1.646
237.57	1.654
237.71	1.66
237.87	1.668
238.05	1.674
238.22	1.681
238.38	1.687
238.55	1.694
238.71	1.702
238.89	1.708
239.06	1.715
239.23	1.718
239.41	1.726
239.56	1.732
239.75	1.743
239.9	1.749
240.07	1.752
240.24	1.763
240.4	1.769
240.59	1.777
240.74	1.783
240.91	1.79
241.08	1.8
241.24	1.811
241.41	1.817
241.57	1.824
241.75	1.831
241.92	1.834
242.09	1.845
242.26	1.848
242.42	1.855
242.6	1.862
242.76	1.868
242.93	1.876
243.1	1.882
243.25	1.888
243.44	1.895
243.6	1.903
243.76	1.909
243.94	1.916
244.11	1.922
244.3	1.929
244.44	1.934
244.6	1.941
244.77	1.947
244.95	1.954
245.1	1.96
245.27	1.965
245.45	1.971
245.62	1.976
245.78	1.981
245.96	1.988
246.16	1.996
246.3	2.002
246.46	2.005
246.57	2.009
246.8	2.015
246.97	2.019
247.14	2.022
247.31	2.026
247.46	2.032
247.64	2.039
247.81	2.046
247.98	2.051
248.15	2.056
248.32	2.06
248.49	2.066
248.65	2.073
248.82	2.078
248.99	2.084
249.16	2.091
249.33	2.101
249.49	2.108
249.66	2.114
249.83	2.123
250	2.128
250.17	2.136
250.34	2.145
250.51	2.159
250.67	2.169
250.84	2.176
251.01	2.183
251.18	2.186
251.35	2.19
251.52	2.193
251.68	2.193
251.85	2.193
252.02	2.19
252.19	2.186
252.36	2.179
252.53	2.176
252.69	2.176
252.86	2.176
253.03	2.176
253.2	2.176
253.37	2.176
253.54	2.176
253.7	2.179
253.93	2.184
254.07	2.188
254.21	2.193
254.4	2.202
254.55	2.21
254.71	2.224
254.88	2.237
255.05	2.254
255.22	2.261
255.39	2.275
255.54	2.284
255.72	2.295
255.89	2.306
256.05	2.313
256.22	2.321
256.38	2.327
256.55	2.33
256.73	2.33
256.9	2.323
257.07	2.309
257.24	2.292
257.41	2.278
257.58	2.268
257.74	2.258
257.87	2.249
258.02	2.241
258.18	2.235
258.42	2.23
258.59	2.227
258.75	2.224
258.92	2.217
259.09	2.213
259.26	2.213
259.43	2.213
259.6	2.217
259.76	2.224
259.93	2.227
260.1	2.234
260.27	2.241
260.44	2.248
260.61	2.258
260.77	2.261
260.94	2.272
261.11	2.275
261.28	2.275
261.45	2.278
261.62	2.285
261.78	2.289
261.95	2.289
262.12	2.289
262.29	2.289
262.46	2.282
262.63	2.278
262.79	2.272
263	2.257
263.16	2.238
263.32	2.22
263.51	2.196
263.64	2.172
263.78	2.148
263.97	2.121
264.12	2.103
264.31	2.084
264.5	2.07
264.75	2.059
264.98	2.053
265.32	2.05
265.87	2.049
266.24	2.05
266.51	2.058
266.67	2.065
266.79	2.075
266.94	2.085
267.04	2.09
267.11	2.09
267.17	2.087
267.23	2.082
267.28	2.075
267.37	2.058
267.46	2.035
267.63	1.983
267.85	1.927
268.01	1.889
268.18	1.834
268.35	1.797
268.52	1.752
268.69	1.718
268.86	1.67
269.02	1.64
269.19	1.605
269.36	1.575
269.53	1.537
269.7	1.503
269.87	1.472
270.03	1.423
270.18	1.382
270.37	1.342
270.54	1.312
270.71	1.284
270.88	1.25
271.04	1.219
271.21	1.192
271.38	1.165
271.55	1.134
271.72	1.107
271.89	1.079
272.05	1.042
272.22	1.011
272.39	0.977
272.56	0.939
272.72	0.9
272.88	0.857
272.98	0.818
273.14	0.773
273.25	0.736
273.4	0.68
