Uv/Vis Spectrum: Methanone, phenyl-2-thienyl-
Formula: C11H8OS
CAS: 135-00-2
Melting point: 53.5-55.5
Instrument: Cary 14
Origin: INSTITUTE OF ENERGY PROBLEMS OF CHEMICAL PHYSICS, RAS
Wavelength (nm)	Logarithm epsilon
201.62	3.822
202.62	3.804
203.63	3.785
204.85	3.764
205.85	3.74
206.86	3.717
208.08	3.694
209.08	3.669
210.3	3.642
211.51	3.618
212.72	3.592
214.33	3.57
215.95	3.556
217.77	3.551
219.58	3.56
221.2	3.579
222.41	3.61
223.42	3.638
224.23	3.669
225.24	3.697
226.04	3.724
226.65	3.749
227.66	3.773
228.26	3.799
228.87	3.82
229.48	3.84
230.28	3.86
230.89	3.878
231.49	3.896
232.3	3.913
233.11	3.93
233.92	3.946
234.52	3.963
235.53	3.978
236.34	3.992
237.15	4.006
237.95	4.019
238.76	4.032
239.77	4.045
240.78	4.057
241.79	4.069
242.8	4.079
244.01	4.087
245.83	4.09
247.64	4.086
249.26	4.08
250.87	4.073
252.29	4.066
253.7	4.058
255.32	4.051
256.93	4.043
258.55	4.037
260.36	4.032
262.18	4.027
264	4.029
265.81	4.034
267.43	4.038
269.04	4.043
270.66	4.049
272.27	4.054
274.09	4.055
275.91	4.055
277.73	4.055
279.34	4.051
280.96	4.043
282.17	4.034
283.18	4.022
284.19	4.009
284.79	3.995
285.6	3.981
286.2	3.966
286.81	3.951
287.42	3.936
288.02	3.919
288.43	3.9
289.03	3.883
289.64	3.864
290.24	3.843
290.85	3.822
291.45	3.801
292.06	3.779
292.66	3.755
293.27	3.727
293.88	3.701
294.68	3.672
295.29	3.642
295.9	3.61
296.5	3.574
297.31	3.536
298.12	3.494
298.72	3.447
299.53	3.395
300.34	3.336
301.35	3.277
302.56	3.208
303.77	3.126
305.18	3.041
306.8	2.955
308.41	2.871
310.23	2.795
312.05	2.736
315.68	2.629
317.5	2.587
