Uv/Vis Spectrum: 2-Naphthalenol
Formula: C10H8O
CAS: 135-19-3
Melting point: 123
Boiling point: 285
Instrument: n.i.g.
Origin: INSTITUTE OF ENERGY PROBLEMS OF CHEMICAL PHYSICS, RAS
Wavelength (nm)	Logarithm epsilon
249.649	3.4433
250.156	3.44469
250.77	3.44738
252.015	3.45366
252.015	3.45366
252.609	3.45798
253.193	3.46219
253.771	3.46635
253.771	3.46635
255.026	3.47901
255.641	3.48493
256.146	3.48918
256.146	3.48918
256.191	3.49087
256.231	3.49255
256.261	3.49423
256.261	3.49423
256.514	3.49789
256.857	3.50379
257.38	3.51164
257.38	3.51164
257.663	3.52057
258.134	3.53449
258.571	3.5492
258.571	3.5492
258.666	3.55016
258.756	3.55107
258.823	3.5617
258.823	3.5617
258.827	3.55851
258.831	3.55522
258.835	3.55187
258.835	3.55187
259.353	3.5682
259.607	3.57184
259.8	3.57573
259.8	3.57573
260.183	3.57961
260.56	3.58343
260.927	3.58714
260.927	3.58714
261.143	3.58837
261.354	3.58959
261.554	3.59082
261.554	3.59082
264.352	3.5931
265.722	3.59457
266.838	3.59649
266.838	3.59649
267.007	3.59746
267.175	3.59838
267.344	3.59919
267.344	3.59919
267.769	3.60349
268.182	3.60768
268.591	3.61182
268.591	3.61182
268.845	3.61609
269.089	3.62026
269.327	3.62438
269.327	3.62438
269.591	3.62772
269.971	3.63306
270.569	3.6406
270.569	3.6406
270.925	3.6407
271.151	3.6411
271.441	3.64214
271.441	3.64214
271.703	3.64081
271.953	3.63958
272.198	3.6384
272.198	3.6384
272.572	3.63028
272.741	3.62576
272.851	3.62097
272.851	3.62097
272.948	3.62003
273.04	3.61914
273.121	3.61836
273.121	3.61836
273.397	3.60658
273.532	3.59889
273.644	3.58868
273.644	3.58868
273.741	3.58774
273.833	3.58686
273.914	3.58608
273.914	3.58608
274.569	3.55688
274.844	3.54335
274.974	3.53392
274.974	3.53392
275.071	3.53298
275.163	3.53209
275.244	3.53131
275.244	3.53131
275.523	3.51679
275.66	3.50779
275.772	3.4966
275.772	3.4966
275.87	3.49566
275.962	3.49477
276.043	3.49399
276.043	3.49399
276.093	3.49185
276.138	3.48976
276.172	3.48777
276.172	3.48777
276.755	3.4861
277.309	3.48517
278.312	3.48419
278.312	3.48419
278.615	3.48623
278.94	3.48795
279.566	3.49082
279.566	3.49082
279.937	3.49647
280.195	3.50104
280.563	3.50845
280.563	3.50845
280.97	3.51306
281.377	3.51766
281.784	3.52227
281.784	3.52227
282.124	3.52231
282.464	3.52235
282.803	3.52239
282.803	3.52239
283.067	3.5198
283.319	3.51725
283.565	3.51481
283.565	3.51481
283.567	3.51314
283.569	3.51152
283.571	3.51002
283.571	3.51002
283.669	3.50908
283.76	3.50819
283.841	3.50741
283.841	3.50741
284.096	3.48772
284.346	3.46804
284.593	3.44835
284.837	3.42867
285.08	3.40898
285.08	3.40898
285.139	3.40018
285.192	3.39149
285.234	3.38285
285.234	3.38285
285.331	3.38191
285.423	3.38103
285.504	3.38025
285.504	3.38025
285.563	3.37145
285.616	3.36276
285.658	3.35412
285.658	3.35412
285.753	3.34989
285.837	3.34576
285.916	3.34168
285.916	3.34168
286.073	3.32773
286.231	3.31414
286.392	3.30065
286.558	3.28695
286.731	3.27277
286.913	3.2578
287.107	3.24175
287.314	3.22435
287.536	3.2053
287.775	3.18431
288.034	3.16109
288.034	3.16109
288.131	3.16015
288.223	3.15926
288.304	3.15848
288.304	3.15848
288.421	3.14768
288.593	3.13576
288.968	3.11251
288.968	3.11251
289.309	3.09852
289.684	3.08492
290.329	3.06367
291.477	3.02671
291.477	3.02671
291.574	3.02577
291.666	3.02488
291.747	3.0241
291.747	3.0241
291.798	3.02123
291.844	3.01836
291.879	3.01548
291.879	3.01548
292.146	3.01001
292.402	3.00458
292.652	2.99926
292.652	2.99926
292.871	2.99761
293.086	2.99596
293.289	2.99431
293.289	2.99431
293.34	2.99174
293.385	2.98929
293.42	2.98689
293.42	2.98689
293.683	2.98435
293.935	2.98192
294.181	2.97954
294.181	2.97954
294.491	2.9779
294.791	2.97626
295.085	2.97462
295.085	2.97462
295.667	2.97517
296.249	2.97572
296.831	2.97627
296.831	2.97627
297.047	2.97749
297.257	2.97872
297.457	2.97994
297.457	2.97994
297.83	2.98454
298.334	2.99188
299.199	3.0039
299.199	3.0039
299.62	3.01103
300	3.01682
300.437	3.02395
300.437	3.02395
300.557	3.02492
300.677	3.02583
300.797	3.02664
300.797	3.02664
301.598	3.04003
301.987	3.04586
302.299	3.04913
302.299	3.04913
302.867	3.05809
303.772	3.07039
304.518	3.07938
304.518	3.07938
305.262	3.08889
305.789	3.09561
306.118	3.10092
306.118	3.10092
306.374	3.10351
306.62	3.10601
306.861	3.10844
306.861	3.10844
308.305	3.13242
309.205	3.14801
310.33	3.16859
310.33	3.16859
310.783	3.17505
311.236	3.1814
311.69	3.1877
311.69	3.1877
312.234	3.19321
312.767	3.19862
313.296	3.20397
313.296	3.20397
313.602	3.20537
313.898	3.20667
314.189	3.20791
314.189	3.20791
314.82	3.20799
315.451	3.20806
316.082	3.20814
316.082	3.20814
317.33	3.20466
317.886	3.2028
318.227	3.20097
318.227	3.20097
319.394	3.19756
319.949	3.19632
320.368	3.19619
320.368	3.19619
322.067	3.20521
322.818	3.20885
323.264	3.21021
323.264	3.21021
324.096	3.21823
324.918	3.22624
325.734	3.23426
325.734	3.23426
325.95	3.23517
326.161	3.23598
326.362	3.23673
326.362	3.23673
326.823	3.23679
327.284	3.23684
327.745	3.2369
327.745	3.2369
327.964	3.23572
328.178	3.23455
328.38	3.23338
328.38	3.23338
328.754	3.22526
328.923	3.22074
329.033	3.21595
329.033	3.21595
329.13	3.21501
329.222	3.21412
329.303	3.21334
329.303	3.21334
329.58	3.20057
329.717	3.19157
329.832	3.17863
329.832	3.17863
329.929	3.17769
330.021	3.1768
330.102	3.17602
330.102	3.17602
330.257	3.16331
330.399	3.15239
330.562	3.14091
330.784	3.12655
331.101	3.10698
331.547	3.07988
332.161	3.04291
332.161	3.04291
332.299	3.02909
332.438	3.01537
332.576	3.00171
332.576	3.00171
332.673	3.00077
332.765	2.99988
332.846	2.9991
332.846	2.9991
333.149	2.97625
333.396	2.96049
333.795	2.93829
333.795	2.93829
333.932	2.92821
334.148	2.91374
334.423	2.896
334.735	2.87615
335.064	2.85531
335.387	2.83462
335.686	2.81522
335.938	2.79824
336.122	2.78483
