Uv/Vis Spectrum: Benzene, 1,2-diethyl-
Formula: C10H14
CAS: 135-01-3
Melting point: - 31.2
Boiling point: 184
Instrument: unknown
Origin: INSTITUTE OF ENERGY PROBLEMS OF CHEMICAL PHYSICS, RAS
Wavelength (nm)	Logarithm epsilon
227.29	2.17
227.33	2.169
227.5	2.116
227.71	2.053
227.92	1.978
228.13	1.92
228.34	1.856
228.55	1.811
228.76	1.773
228.97	1.727
229.18	1.688
229.73	1.597
229.99	1.563
230.24	1.532
230.49	1.498
230.79	1.462
231.12	1.43
231.46	1.394
231.8	1.364
232.13	1.347
232.52	1.337
232.93	1.331
233.31	1.331
233.72	1.335
234.11	1.347
234.47	1.366
234.79	1.387
235.17	1.407
235.49	1.426
235.84	1.449
236.14	1.467
236.41	1.486
236.78	1.506
237.1	1.523
237.53	1.542
237.86	1.558
238.2	1.573
238.54	1.592
238.88	1.61
239.21	1.632
239.57	1.649
239.89	1.665
240.22	1.684
240.56	1.699
240.9	1.717
241.19	1.734
241.49	1.751
241.82	1.766
242.16	1.782
242.46	1.797
242.75	1.811
243.05	1.825
243.38	1.838
243.68	1.851
244.02	1.864
244.31	1.876
244.61	1.891
244.9	1.902
245.2	1.913
245.49	1.924
245.78	1.935
246.08	1.946
246.33	1.958
246.63	1.968
246.92	1.978
247.22	1.987
247.47	1.998
247.77	2.009
248.02	2.02
248.31	2.03
248.61	2.038
248.9	2.047
249.16	2.056
249.45	2.066
249.7	2.075
249.96	2.086
250.25	2.095
250.5	2.103
250.76	2.113
251.01	2.122
251.22	2.133
251.47	2.141
251.73	2.148
252.02	2.156
252.32	2.162
252.65	2.169
252.95	2.176
253.2	2.185
253.45	2.192
253.71	2.2
253.96	2.208
254.17	2.216
254.38	2.223
254.59	2.231
254.8	2.238
255.01	2.247
255.22	2.255
255.43	2.262
255.64	2.269
255.9	2.276
256.15	2.281
256.53	2.284
256.91	2.287
257.29	2.286
257.67	2.284
258.05	2.283
258.42	2.286
258.68	2.292
258.93	2.297
259.1	2.305
259.31	2.311
259.48	2.318
259.73	2.324
259.98	2.33
260.28	2.335
260.57	2.34
260.87	2.344
261.16	2.349
261.42	2.354
261.71	2.359
262.01	2.364
262.26	2.368
262.51	2.373
262.76	2.378
263.06	2.382
263.4	2.385
263.78	2.384
264.11	2.38
264.37	2.375
264.53	2.368
264.66	2.362
264.87	2.356
264.99	2.35
265.17	2.342
265.29	2.334
265.42	2.328
265.55	2.321
265.64	2.313
265.8	2.306
265.97	2.298
266.13	2.291
266.39	2.284
266.64	2.279
266.94	2.273
267.23	2.268
267.61	2.265
267.95	2.262
268.2	2.256
268.41	2.249
268.62	2.24
268.76	2.233
269.04	2.221
269.34	2.21
269.51	2.203
269.67	2.196
269.84	2.192
270.01	2.192
270.18	2.196
270.35	2.212
270.52	2.228
270.71	2.25
270.9	2.267
271.06	2.282
271.22	2.294
271.36	2.305
271.53	2.307
271.7	2.302
271.82	2.291
271.96	2.276
272.14	2.257
272.32	2.233
272.54	2.203
272.71	2.175
272.88	2.143
273.04	2.118
273.21	2.078
273.38	2.053
273.55	2.014
273.72	1.979
273.89	1.939
274.06	1.904
274.22	1.859
274.39	1.817
274.56	1.776
274.73	1.731
274.9	1.676
275.07	1.64
275.24	1.597
275.4	1.548
275.57	1.504
275.74	1.468
275.91	1.436
276.08	1.402
276.25	1.364
276.42	1.322
276.58	1.277
276.75	1.225
276.92	1.192
