Uv/Vis Spectrum: Phenoxazine
Formula: C12H9NO
CAS: 135-67-1
Melting point: 156
Boiling point: dec
Instrument: n.i.g.
Origin: INSTITUTE OF ENERGY PROBLEMS OF CHEMICAL PHYSICS, RAS
Wavelength (nm)	Logarithm epsilon
209.811	4.2904
210.184	4.2889
210.488	4.27785
210.792	4.26671
211.459	4.25004
211.777	4.24331
212.094	4.23648
212.453	4.22931
212.761	4.21858
213.079	4.21133
213.424	4.19809
213.746	4.19235
214.064	4.18465
214.405	4.16861
214.436	4.18274
214.744	4.17077
215.443	4.16462
215.764	4.15841
216.086	4.15211
216.453	4.14776
216.775	4.1413
217.097	4.13475
217.464	4.13022
217.786	4.12349
218.112	4.11885
218.802	4.10745
219.123	4.10036
219.495	4.09776
222.937	4.0805
223.992	4.08545
225.399	4.09983
225.742	4.10434
226.123	4.10684
226.462	4.10905
226.806	4.11374
227.186	4.11592
227.525	4.11808
227.878	4.12725
228.263	4.13175
228.606	4.13595
228.95	4.14036
229.331	4.1424
230.022	4.15308
230.407	4.15732
230.751	4.16127
231.094	4.16544
231.475	4.16737
231.819	4.17147
232.171	4.17936
232.552	4.18146
232.895	4.18521
233.238	4.18915
233.619	4.19097
233.963	4.19487
234.306	4.19872
234.645	4.20051
235.031	4.20431
237.14	4.21151
237.483	4.21523
238.516	4.20965
238.842	4.20585
239.884	4.20399
240.908	4.19439
241.275	4.19045
241.597	4.1846
241.919	4.17867
242.282	4.17265
243.276	4.14776
243.589	4.13713
243.897	4.12355
244.248	4.1098
244.561	4.09819
244.869	4.08361
245.224	4.07095
245.532	4.05541
245.841	4.03928
246.154	4.02526
246.504	4.00795
246.817	3.99285
247.125	3.97417
247.476	3.95465
247.789	3.93796
248.08	3.90167
248.111	3.92745
248.443	3.89022
248.47	3.91273
248.761	3.87464
249.078	3.85799
249.433	3.83703
249.763	3.83225
250.084	3.81879
250.444	3.80037
250.765	3.78586
251.083	3.76596
251.437	3.73925
251.759	3.72251
252.085	3.71072
252.44	3.681
253.803	3.65447
254.133	3.64797
255.551	3.6403
255.891	3.64755
256.941	3.65372
257.991	3.66059
259.041	3.66657
260.091	3.67248
261.133	3.66609
261.477	3.67898
262.192	3.68479
262.866	3.69054
264.293	3.69677
264.632	3.70243
265.347	3.70795
266.022	3.71409
266.737	3.71945
267.452	3.72476
268.503	3.73059
269.177	3.73577
269.888	3.73563
271.612	3.74637
273.365	3.7402
275.787	3.73446
276.494	3.72899
277.535	3.72271
278.577	3.71703
279.284	3.71133
280.656	3.69901
281.698	3.693
283.069	3.68014
285.161	3.67967
285.877	3.68548
287.262	3.69179
288.308	3.69156
288.634	3.67889
289.024	3.69721
289.693	3.69707
290.069	3.69699
290.743	3.70258
291.45	3.69669
293.178	3.71401
293.894	3.71938
294.945	3.72529
295.279	3.72522
295.991	3.72507
296.693	3.71328
297.041	3.73024
297.752	3.7301
298.082	3.72465
298.43	3.74118
299.857	3.74609
300.907	3.75101
301.958	3.75651
303.008	3.76131
307.159	3.77101
308.92	3.77553
312.397	3.7797
317.284	3.76916
318.994	3.76331
319.701	3.7582
320.408	3.75303
321.073	3.74716
322.115	3.74178
322.822	3.73641
324.193	3.72479
324.901	3.7192
325.607	3.71284
328.017	3.68873
328.347	3.68274
328.677	3.67591
329.049	3.66972
329.715	3.66338
330.091	3.66329
330.421	3.65614
331.119	3.63569
331.454	3.63561
332.156	3.62107
332.487	3.61406
332.822	3.61397
333.194	3.60683
333.854	3.59129
334.231	3.59119
334.562	3.58367
335.26	3.5594
335.594	3.55931
338.367	3.49561
339.367	3.48599
340.074	3.47625
340.78	3.46507
341.445	3.45486
342.152	3.44439
342.487	3.44426
343.524	3.42133
344.231	3.41001
344.566	3.40987
345.603	3.38499
345.98	3.38482
347.017	3.35842
347.682	3.34533
348.389	3.33182
349.095	3.31613
351.141	3.30094
352.56	3.28555
353.936	3.26769
355.308	3.23466
358.826	3.24895
361.96	3.23048
362.625	3.21061
