Uv/Vis Spectrum: Benzaldehyde, 2-methoxy-
Formula: C8H8O2
CAS: 135-02-4
Boiling point: 75/ 0.4 mm
Instrument: Perkin-Elmer
Origin: INSTITUTE OF ENERGY PROBLEMS OF CHEMICAL PHYSICS, RAS
Wavelength (nm)	Logarithm epsilon
208.15	4.227
208.25	4.227
208.34	4.23
208.44	4.23
208.53	4.23
208.63	4.232
208.72	4.232
208.81	4.234
208.91	4.234
209	4.234
209.1	4.236
209.19	4.236
209.57	4.24
210.05	4.249
210.53	4.253
211.01	4.262
211.5	4.264
211.98	4.27
212.47	4.272
212.96	4.274
213.45	4.274
213.95	4.274
214.44	4.274
214.94	4.274
215.45	4.272
215.95	4.268
216.46	4.262
216.97	4.253
217.48	4.242
217.99	4.232
218.51	4.219
219.03	4.2
219.55	4.181
220.07	4.159
220.6	4.134
221.13	4.095
221.66	4.05
222.19	4.04
222.73	4.006
223.27	3.927
223.81	3.863
224.35	3.779
224.9	3.656
225.45	3.57
226	3.493
226.56	3.444
227.11	3.393
227.68	3.346
228.24	3.312
228.8	3.284
229.37	3.276
229.94	3.274
230.52	3.28
231.1	3.293
231.68	3.306
232.26	3.325
232.86	3.346
233.44	3.367
234.03	3.391
234.64	3.417
235.24	3.443
235.88	3.467
236.43	3.493
237.03	3.516
237.64	3.537
238.26	3.56
238.88	3.581
239.5	3.609
240.12	3.634
240.75	3.662
241.38	3.683
242.01	3.709
242.65	3.73
243.29	3.756
243.93	3.779
244.58	3.799
245.23	3.82
245.88	3.841
246.54	3.863
247.2	3.88
247.86	3.897
248.53	3.914
249.2	3.933
249.87	3.946
250.55	3.961
251.24	3.971
251.92	3.978
252.61	3.986
253.3	3.993
254	3.997
254.7	3.999
255.41	3.999
256.12	3.995
256.83	3.993
257.55	3.986
258.27	3.976
258.99	3.965
259.72	3.95
260.46	3.929
261.19	3.903
261.93	3.875
262.68	3.845
263.43	3.811
264.19	3.777
264.94	3.741
265.71	3.696
266.47	3.662
267.25	3.619
268.02	3.568
268.8	3.515
269.59	3.457
270.19	3.413
270.72	3.375
271.57	3.328
272.57	3.262
273.59	3.195
274.4	3.103
275.22	3.005
276.04	2.913
276.87	2.834
277.7	2.766
278.54	2.723
279.39	2.695
280.23	2.685
281.09	2.693
281.95	2.708
282.81	2.723
283.68	2.742
284.56	2.764
285.44	2.791
286.32	2.817
287.21	2.855
288.11	2.885
289.01	2.928
290.1	2.967
291.02	3.001
291.76	3.024
292.7	3.055
293.56	3.089
294.55	3.122
295.49	3.152
296.44	3.188
297.4	3.22
298.36	3.254
299.33	3.286
300.3	3.312
301.28	3.338
302.27	3.363
303.26	3.389
304.26	3.412
305.27	3.431
306.28	3.453
307.3	3.474
308.33	3.493
309.37	3.515
310.41	3.534
311.45	3.549
312.51	3.566
313.57	3.581
314.64	3.596
315.72	3.606
316.8	3.617
317.89	3.628
318.99	3.636
320.1	3.643
321.21	3.647
322.34	3.651
323.47	3.656
324.6	3.658
325.75	3.656
326.9	3.649
328.07	3.641
329.24	3.63
330.42	3.615
331.61	3.596
332.8	3.574
334.01	3.553
335.22	3.521
336.44	3.491
337.67	3.457
338.91	3.408
340.16	3.367
341.42	3.327
342.69	3.284
343.97	3.242
345.26	3.192
346.55	3.128
347.86	3.069
349.18	3.01
350.5	2.936
351.81	2.879
353.19	2.817
354.53	2.75
355.85	2.678
357.26	2.602
358.68	2.51
359.69	2.434
360.42	2.365
360.91	2.316
361.77	2.239
362.34	2.181
363.2	2.11
364.06	2.055
