Uv/Vis Spectrum: Cupferron
Formula: C6H9N3O2
CAS: 135-20-6
Melting point: 163.5
Instrument: Spectrophotometer SF-4
Origin: INSTITUTE OF ENERGY PROBLEMS OF CHEMICAL PHYSICS, RAS
Wavelength (nm)	Logarithm epsilon
210.061	3.94
210.97	3.95203
211.036	3.953
211.123	3.95374
211.223	3.95404
211.627	3.95704
211.692	3.95804
211.78	3.95905
211.879	3.96005
213.268	3.96696
214.658	3.98412
215.468	3.98983
216.289	3.99511
216.486	3.99125
217.133	4.00016
218.598	4.01019
218.65	4.01019
218.714	4.01019
218.8	4.01019
219.154	4.0142
219.962	4.01219
219.962	4.01219
220.407	4.01765
221.403	4.01843
222.022	4.0092
222.993	4.01721
223.346	4.0142
223.513	4.0139
223.702	4.01316
223.902	4.01219
223.938	4.00057
225.725	3.98685
227.398	3.96857
228.398	3.96406
228.501	3.96202
228.615	3.95975
228.752	3.95704
228.973	3.94626
230.464	3.92046
231.076	3.90991
231.292	3.90587
231.532	3.9016
231.783	3.89688
231.886	3.89171
232.288	3.88384
232.441	3.8808
232.606	3.87753
232.793	3.87382
233.096	3.86379
233.199	3.86175
233.255	3.86053
233.313	3.85948
233.45	3.85677
233.803	3.84674
234.007	3.84143
234.222	3.83568
234.46	3.8297
234.587	3.82747
235.319	3.80663
235.42	3.80459
235.521	3.80233
235.622	3.79962
235.895	3.79305
237.197	3.75782
237.845	3.74346
237.946	3.74142
238.047	3.73916
238.148	3.73644
238.501	3.72642
238.506	3.72232
238.604	3.72438
238.718	3.72211
238.855	3.7194
239.838	3.68706
241.207	3.65259
242.189	3.62915
242.593	3.62009
242.631	3.61945
242.997	3.61081
243.401	3.60108
244.058	3.58604
244.122	3.58817
244.161	3.584
244.275	3.58173
244.412	3.57902
245.698	3.55929
247.372	3.53333
247.594	3.53289
247.66	3.5326
247.748	3.53185
247.847	3.53089
248.605	3.52287
248.928	3.52205
249.16	3.51084
249.207	3.52168
249.615	3.50883
249.665	3.51054
249.716	3.5118
249.767	3.51284
249.767	3.51284
249.969	3.50883
249.969	3.51585
250.728	3.51054
250.728	3.51485
251.499	3.5118
251.499	3.51384
252.292	3.51284
252.292	3.51284
252.494	3.51485
252.646	3.51284
253.81	3.51756
254.633	3.52456
254.985	3.52183
256.182	3.52588
256.711	3.53717
258.734	3.55232
260.71	3.56969
262.646	3.58893
264.55	3.60972
266.428	3.63172
267.548	3.64119
267.904	3.6462
268.27	3.65122
268.287	3.65459
268.66	3.65623
270.135	3.678
271.98	3.70161
273.828	3.72508
275.686	3.7481
276.439	3.7555
276.54	3.7562
276.641	3.75646
276.742	3.7565
277.562	3.7703
277.954	3.77154
278.056	3.77251
278.157	3.77325
278.258	3.77355
279.462	3.79137
281.395	3.81097
283.368	3.82876
285.386	3.8444
287.458	3.85756
288.007	3.85978
289.591	3.86791
290.146	3.86843
291.678	3.87285
291.793	3.87512
301.774	3.85206
303.162	3.84374
303.213	3.84374
303.263	3.84374
303.314	3.84374
304.139	3.8386
306.418	3.82264
308.214	3.80663
308.279	3.8066
308.367	3.80634
308.466	3.80563
308.622	3.80405
310.758	3.7827
312.838	3.75845
313.922	3.74346
314.038	3.74216
314.176	3.74042
314.326	3.73845
314.87	3.73117
316.864	3.70072
318.829	3.66697
327.97	3.44147
329.231	3.40439
330.473	3.36689
331.699	3.32903
335.298	3.21356
336.478	3.17456
337.65	3.13537
338.817	3.09601
341.141	3.01695
342.303	2.97733
343.466	2.93768
344.633	2.89804
345.805	2.85846
346.985	2.81896
348.174	2.77958
349.373	2.74036
350.586	2.70133
351.813	2.66252
353.056	2.62398
354.318	2.58573
355.599	2.54781
356.902	2.51026
358.229	2.47311
359.581	2.4364
360.96	2.40015
362.368	2.36442
363.807	2.32923
365.279	2.29461
366.785	2.26061
368.327	2.22725
369.908	2.19458
371.528	2.16263
373.19	2.13143
374.895	2.10102
374.895	2.10102
376.835	2.07435
378.839	2.04963
385.172	1.98487
387.368	1.96565
407.504	1.79882
409.488	1.77576
411.462	1.7521
413.425	1.72787
415.378	1.70309
417.322	1.6778
419.256	1.65201
421.182	1.62577
423.099	1.59908
425.007	1.57198
426.909	1.54451
428.802	1.51667
430.689	1.4885
432.569	1.46002
434.443	1.43127
436.311	1.40227
438.173	1.37305
438.192	1.37004
438.295	1.368
438.409	1.36573
438.546	1.36302
440.03	1.34362
441.883	1.31403
443.731	1.28429
456.579	1.0743
458.406	1.04437
460.232	1.01452
462.057	0.984806
465.708	0.925838
467.534	0.896642
469.361	0.86768
469.361	0.86768
471.048	0.836565
472.796	0.805576
474.598	0.774772
476.448	0.744223
478.343	0.713994
478.959	0.708251
479.062	0.706206
479.176	0.703936
479.312	0.701231
479.615	0.698222
479.718	0.696173
479.832	0.693912
479.969	0.691196
480.276	0.684136
481.484	0.671145
481.638	0.668097
481.803	0.66483
481.99	0.661121
482.242	0.654725
482.848	0.651094
482.949	0.649091
483.05	0.64708
483.151	0.645078
484.236	0.625827
485.879	0.60798
486.083	0.604928
486.253	0.597487
486.298	0.601658
486.536	0.597947
487.546	0.584908
488.003	0.578891
488.286	0.569783
488.471	0.572883
488.961	0.566862
490.224	0.550815
490.327	0.548819
490.332	0.542788
490.441	0.546814
490.577	0.5448
490.931	0.540792
491.047	0.539753
491.185	0.538486
491.335	0.536786
491.739	0.530763
492.095	0.526456
492.385	0.516535
492.461	0.5217
492.851	0.516734
494.113	0.500689
494.381	0.496639
494.438	0.491123
494.671	0.492369
