Uv/Vis Spectrum: Benzene, (1-methylpropyl)-
Formula: C10H14
CAS: 135-98-8
Boiling point: 173.5
Instrument: unknown
Origin: INSTITUTE OF ENERGY PROBLEMS OF CHEMICAL PHYSICS, RAS
Wavelength (nm)	Logarithm epsilon
224.63	1.62
224.67	1.616
224.71	1.608
224.82	1.592
224.97	1.567
225.22	1.532
225.52	1.486
225.81	1.441
226.11	1.392
226.41	1.352
226.7	1.309
227	1.261
227.32	1.216
227.55	1.181
227.85	1.131
228.19	1.073
228.34	1.051
228.66	1.032
229.12	1.025
229.47	1.031
229.67	1.041
229.96	1.062
230.24	1.081
230.57	1.104
230.81	1.122
231.16	1.145
231.39	1.162
231.66	1.181
232.05	1.207
232.33	1.222
232.64	1.24
232.94	1.261
233.24	1.281
233.56	1.303
233.83	1.327
234.13	1.344
234.43	1.369
234.72	1.392
235.02	1.414
235.3	1.434
235.62	1.455
235.91	1.474
236.21	1.492
236.51	1.51
236.8	1.526
237.1	1.543
237.39	1.56
237.69	1.578
237.99	1.598
238.27	1.611
238.59	1.625
238.88	1.638
239.18	1.655
239.48	1.671
239.77	1.686
240.07	1.701
240.37	1.716
240.66	1.733
240.96	1.75
241.26	1.763
241.56	1.776
241.85	1.794
242.15	1.809
242.45	1.825
242.68	1.836
243.04	1.844
243.34	1.847
243.64	1.852
243.93	1.855
244.23	1.863
244.53	1.875
244.82	1.887
245.12	1.902
245.41	1.916
245.71	1.931
246.01	1.946
246.31	1.962
246.61	1.978
246.9	1.993
247.2	2.008
247.5	2.021
247.79	2.033
248.09	2.042
248.39	2.048
248.68	2.05
248.98	2.048
249.28	2.05
249.58	2.048
249.87	2.051
250.17	2.058
250.47	2.069
250.76	2.085
251.06	2.1
251.36	2.123
251.65	2.146
251.95	2.167
252.25	2.179
252.55	2.19
252.84	2.198
253.14	2.204
253.44	2.205
253.73	2.204
254.03	2.199
254.33	2.196
254.63	2.189
254.92	2.184
255.22	2.178
255.52	2.17
255.81	2.163
256.11	2.158
256.41	2.159
256.7	2.161
257	2.17
257.3	2.186
257.6	2.21
257.89	2.236
258.19	2.263
258.49	2.277
258.78	2.282
259.08	2.284
259.38	2.283
259.67	2.28
259.97	2.275
260.27	2.274
260.57	2.274
260.86	2.275
261.16	2.27
261.46	2.258
261.75	2.241
262.05	2.212
262.35	2.179
262.64	2.143
262.94	2.126
263.24	2.117
263.54	2.119
263.83	2.124
264.13	2.134
264.43	2.139
264.72	2.139
265.02	2.134
265.32	2.121
265.62	2.103
265.91	2.085
266.21	2.064
266.51	2.053
266.8	2.056
267.1	2.069
267.4	2.085
267.69	2.1
267.99	2.109
268.29	2.111
268.59	2.101
268.88	2.048
269.18	1.978
269.48	1.897
269.77	1.842
270.07	1.782
270.37	1.719
270.66	1.646
270.96	1.583
271.26	1.526
