Uv/Vis Spectrum: 1,2,4-Trimethoxybenzene
Formula: C9H12O3
CAS: 135-77-3
Instrument: n.i.g.
Origin: INSTITUTE OF ENERGY PROBLEMS OF CHEMICAL PHYSICS, RAS
Wavelength (nm)	Logarithm epsilon
239.551	3.4754
239.903	3.45107
240.214	3.43001
240.513	3.40985
240.829	3.38826
241.19	3.36289
241.624	3.3314
242.16	3.29145
242.827	3.24067
243.652	3.17675
243.652	3.17675
243.932	3.14532
244.214	3.11398
244.5	3.08272
244.789	3.05152
245.083	3.02036
245.381	2.98923
245.684	2.95811
245.993	2.92698
246.309	2.89581
246.631	2.86461
246.962	2.83335
247.299	2.80201
247.646	2.77057
248.002	2.73902
248.002	2.73902
248.317	2.72436
248.927	2.69112
249.811	2.64509
250.947	2.59208
250.947	2.59208
251.378	2.58362
251.813	2.57497
252.257	2.56623
252.576	2.56404
253.378	2.56776
254.041	2.57407
254.785	2.58405
254.785	2.58405
255.718	2.60991
256.601	2.63661
257.44	2.66405
258.238	2.69215
259.001	2.72079
259.733	2.74989
260.44	2.77936
261.124	2.8091
261.792	2.83902
262.448	2.86901
263.097	2.89899
263.743	2.92886
264.392	2.95853
265.047	2.9879
265.713	3.01688
266.396	3.04537
266.396	3.04537
266.779	3.06737
267.431	3.09537
268.914	3.15338
268.95	3.18302
269.231	3.18287
269.511	3.18273
269.771	3.16554
269.777	3.17122
269.784	3.17691
269.791	3.18259
269.791	3.18259
269.796	3.18665
270.391	3.21717
271.182	3.24629
272.082	3.27467
273.004	3.30301
273.863	3.33196
274.571	3.36221
275.043	3.39444
276.084	3.39391
276.664	3.42721
277.73	3.45599
279.054	3.48215
280.41	3.50757
281.568	3.53414
281.568	3.53414
282.678	3.54006
283.793	3.54589
284.916	3.55153
284.916	3.55153
286.583	3.54474
288.029	3.5321
289.282	3.5144
290.368	3.49239
291.315	3.46685
292.149	3.43857
292.896	3.40829
293.584	3.37681
294.24	3.34489
294.24	3.34489
294.661	3.31553
295.057	3.28597
295.431	3.25622
295.784	3.22629
296.116	3.19619
296.429	3.16594
296.724	3.13554
297.001	3.10501
297.261	3.07436
297.506	3.0436
297.736	3.01275
297.952	2.98181
298.156	2.9508
298.348	2.91973
298.529	2.88861
298.701	2.85745
298.864	2.82627
299.019	2.79507
299.167	2.76388
299.309	2.73269
299.447	2.70152
299.58	2.67039
299.711	2.6393
299.84	2.60828
299.967	2.57732
300.095	2.54644
300.224	2.51565
300.354	2.48497
