Uv/Vis Spectrum: Naphthalene, 1-ethyl-1,2,3,4-tetrahydro-
Formula: C12H16
CAS: 13556-58-6
Boiling point: 241
Instrument: unknown
Origin: INSTITUTE OF ENERGY PROBLEMS OF CHEMICAL PHYSICS, RAS
Wavelength (nm)	Logarithm epsilon
227.01	2.592
227.28	2.544
227.49	2.502
227.7	2.464
227.91	2.417
228.13	2.382
228.34	2.344
228.55	2.299
228.77	2.258
228.98	2.219
229.19	2.177
229.4	2.137
229.62	2.088
229.83	2.055
230.04	2.014
230.25	1.981
230.47	1.955
230.68	1.929
230.89	1.903
231.11	1.883
231.32	1.866
231.53	1.843
231.74	1.826
231.96	1.81
232.16	1.796
232.38	1.781
232.6	1.77
232.81	1.76
233	1.753
233.23	1.746
233.45	1.741
233.66	1.737
233.85	1.734
234.08	1.732
234.3	1.73
234.51	1.73
234.72	1.73
234.94	1.73
235.15	1.731
235.36	1.734
235.56	1.736
235.79	1.738
236	1.74
236.21	1.742
236.42	1.745
236.64	1.747
236.85	1.75
237.05	1.753
237.28	1.756
237.52	1.761
237.7	1.766
237.95	1.774
238.15	1.78
238.34	1.787
238.55	1.797
238.77	1.807
238.98	1.82
239.19	1.83
239.4	1.842
239.62	1.856
239.83	1.866
240.04	1.877
240.25	1.886
240.47	1.894
240.68	1.903
240.89	1.913
241.11	1.916
241.32	1.921
241.53	1.93
241.74	1.935
241.96	1.943
242.17	1.95
242.38	1.957
242.59	1.964
242.81	1.971
243.02	1.978
243.23	1.985
243.45	1.994
243.66	2.001
243.87	2.007
244.08	2.017
244.3	2.024
244.51	2.033
244.72	2.043
244.93	2.051
245.15	2.06
245.36	2.073
245.57	2.083
245.79	2.094
246	2.105
246.21	2.115
246.42	2.126
246.64	2.134
246.85	2.142
247.06	2.151
247.28	2.159
247.49	2.167
247.7	2.173
247.91	2.182
248.13	2.189
248.34	2.195
248.55	2.202
248.76	2.208
248.98	2.213
249.19	2.217
249.4	2.224
249.62	2.229
249.83	2.237
250.04	2.244
250.25	2.252
250.47	2.264
250.68	2.275
250.89	2.284
251.1	2.294
251.32	2.3
251.53	2.308
251.74	2.316
251.96	2.322
252.17	2.328
252.38	2.334
252.59	2.339
252.81	2.345
253.02	2.35
253.23	2.354
253.45	2.359
253.66	2.363
253.87	2.367
254.08	2.372
254.3	2.376
254.51	2.38
254.72	2.384
254.93	2.387
255.15	2.39
255.36	2.396
255.57	2.401
255.79	2.406
256	2.412
256.21	2.418
256.42	2.424
256.64	2.431
256.85	2.44
257.06	2.448
257.27	2.457
257.49	2.467
257.7	2.476
257.91	2.488
258.12	2.499
258.36	2.511
258.54	2.52
258.74	2.529
258.98	2.54
259.19	2.549
259.4	2.558
259.51	2.561
259.62	2.56
259.71	2.556
259.83	2.551
260.04	2.543
260.25	2.535
260.47	2.529
260.68	2.526
260.89	2.524
261.1	2.526
261.32	2.528
261.53	2.533
261.74	2.539
261.96	2.544
262.17	2.549
262.38	2.551
262.59	2.551
262.81	2.552
263.02	2.554
263.23	2.556
263.44	2.558
263.66	2.562
263.87	2.571
264.08	2.578
264.3	2.588
264.51	2.601
264.72	2.611
264.93	2.625
265.15	2.637
265.36	2.651
265.57	2.665
265.78	2.679
266	2.684
266.21	2.686
266.42	2.683
266.64	2.676
266.85	2.665
267.06	2.649
267.27	2.638
267.49	2.62
267.7	2.603
267.91	2.588
268.13	2.568
268.34	2.553
268.55	2.538
268.76	2.525
268.98	2.511
269.19	2.501
269.4	2.485
269.61	2.474
269.83	2.463
270.04	2.453
270.25	2.44
270.47	2.433
270.68	2.426
270.89	2.422
271.1	2.421
271.32	2.422
271.53	2.425
271.74	2.43
271.95	2.44
272.17	2.454
272.38	2.477
272.52	2.5
272.61	2.52
272.68	2.538
272.75	2.552
272.82	2.569
272.88	2.585
272.95	2.601
273.02	2.616
273.13	2.643
273.23	2.665
273.33	2.677
273.44	2.688
273.66	2.698
273.74	2.699
273.87	2.697
274.09	2.686
274.21	2.675
274.3	2.664
274.39	2.646
274.51	2.626
274.62	2.604
274.72	2.584
274.81	2.564
274.93	2.541
275.15	2.487
275.36	2.433
275.57	2.369
275.78	2.306
276	2.243
276.21	2.179
276.42	2.116
276.64	2.052
276.85	1.988
277.06	1.925
277.27	1.862
277.49	1.808
277.7	1.764
277.91	1.726
278.12	1.697
278.34	1.673
