Uv/Vis Spectrum: 2-(Ethenylthio)benzothiazole
Formula: C9H7NS2
CAS: 13604-13-2
Boiling point: 135/3 mm
Instrument: unknown
Origin: INSTITUTE OF ENERGY PROBLEMS OF CHEMICAL PHYSICS, RAS
Wavelength (nm)	Logarithm epsilon
196.758	4.23
197.758	4.252
198.758	4.27
199.758	4.287
200.758	4.301
201.758	4.313
202.758	4.321
203.758	4.323
204.772	4.309
205.772	4.288
206.772	4.266
207.772	4.242
208.772	4.221
209.772	4.202
210.772	4.187
211.772	4.176
212.772	4.171
213.772	4.17
214.772	4.174
215.772	4.182
216.701	4.191
217.819	4.202
218.867	4.213
219.867	4.22
220.867	4.228
221.867	4.235
222.867	4.243
223.867	4.251
224.867	4.258
225.867	4.264
226.867	4.266
227.823	4.263
228.823	4.253
229.823	4.243
230.823	4.231
231.823	4.219
232.823	4.207
233.823	4.194
234.823	4.181
235.823	4.168
236.823	4.155
237.823	4.142
238.823	4.129
239.823	4.116
240.823	4.102
241.823	4.087
242.936	4.07
243.936	4.057
244.936	4.038
245.936	4.019
246.936	4.002
247.936	3.99
248.936	3.984
249.898	3.983
250.898	3.977
251.898	3.961
252.433	3.947
253.022	3.935
254.022	3.918
255.022	3.912
256.022	3.912
257.022	3.918
258.022	3.927
259.022	3.938
260.022	3.95
261.022	3.961
262.022	3.972
263.058	3.982
264.058	3.992
265.058	4.002
266.058	4.011
267.058	4.021
268.058	4.03
269.058	4.039
270.058	4.049
271.058	4.058
272.058	4.067
273.058	4.077
274.058	4.086
275.058	4.096
276.058	4.105
277.058	4.114
278.058	4.123
279.058	4.131
280.058	4.14
281.058	4.147
282.058	4.154
283.058	4.16
284.058	4.166
285.058	4.17
286.058	4.173
287.058	4.175
288.058	4.175
288.079	4.175
289.079	4.169
290.079	4.169
291.079	4.171
292.079	4.175
293.242	4.177
294.242	4.166
295.242	4.146
296.242	4.123
297.237	4.104
298.237	4.092
299.237	4.093
300.237	4.101
300.876	4.113
301.427	4.122
302.275	4.13
302.845	4.119
303.482	4.097
304.482	4.046
305.482	3.976
306.482	3.895
307.482	3.809
308.482	3.722
309.482	3.638
310.482	3.557
311.482	3.48
312.482	3.402
313.482	3.321
314.482	3.23
315.482	3.121
