Uv/Vis Spectrum: Manganese, pentacarbonyl(trifluoromethyl)-
Formula: C6F3MnO5
CAS: 13601-14-4
Instrument: Cary Model 10-S
Origin: INSTITUTE OF ENERGY PROBLEMS OF CHEMICAL PHYSICS, RAS
Wavelength (nm)	Logarithm epsilon
212.91	4.453
213.18	4.455
213.44	4.456
213.71	4.458
213.97	4.459
214.24	4.461
214.5	4.462
214.77	4.463
215.03	4.465
215.3	4.466
215.56	4.468
215.83	4.469
216.09	4.471
216.36	4.472
216.62	4.473
216.89	4.475
218.48	4.469
219.27	4.463
220.07	4.461
220.86	4.449
221.66	4.435
222.45	4.415
223.25	4.398
224.04	4.388
224.83	4.368
225.63	4.352
226.42	4.325
227.22	4.305
228.01	4.287
228.81	4.263
229.6	4.246
230.4	4.226
231.19	4.202
231.99	4.177
232.78	4.153
233.58	4.13
234.37	4.108
235.17	4.092
235.96	4.078
236.75	4.065
237.55	4.051
238.34	4.02
239.14	3.992
239.93	3.968
240.73	3.95
241.52	3.924
242.32	3.913
243.11	3.893
243.91	3.869
244.7	3.852
245.5	3.827
246.29	3.813
247.09	3.793
249.47	3.749
250.26	3.729
251.06	3.726
251.85	3.718
252.65	3.716
253.44	3.711
254.24	3.702
255.03	3.697
255.83	3.692
257.42	3.678
258.21	3.677
259.01	3.677
259.8	3.671
260.6	3.67
261.39	3.667
262.19	3.664
262.98	3.66
263.77	3.657
264.57	3.651
265.36	3.648
266.16	3.644
266.95	3.641
267.75	3.635
268.54	3.63
269.34	3.623
270.13	3.617
270.93	3.608
271.72	3.6
272.52	3.588
273.31	3.581
274.11	3.567
274.9	3.559
275.7	3.546
276.49	3.534
277.28	3.527
278.08	3.52
278.87	3.507
279.67	3.496
280.46	3.485
281.26	3.47
282.05	3.459
282.85	3.452
283.64	3.44
284.44	3.432
285.23	3.422
286.82	3.395
287.62	3.381
288.41	3.369
289.21	3.358
290	3.348
290.79	3.335
291.59	3.327
292.38	3.315
293.18	3.307
293.97	3.295
294.77	3.287
295.56	3.28
296.36	3.273
297.15	3.271
