Uv/Vis Spectrum: N-(3-amino-1,4-dihydro-1,4-dioxo-2-naphthalenyl)acetamide
Formula: C12H10N2O3
CAS: 13755-96-9
Melting point: 229-233
Instrument: SF-16
Origin: INSTITUTE OF ENERGY PROBLEMS OF CHEMICAL PHYSICS, RAS
Wavelength (nm)	Logarithm epsilon
213.153	4.189
213.223	4.189
215.223	4.184
217.223	4.176
219.223	4.168
221.223	4.161
223.223	4.155
225.223	4.147
225.961	4.144
227.961	4.136
229.114	4.136
230.097	4.139
231.047	4.144
232.097	4.147
234.097	4.143
235.341	4.134
236.2	4.126
238.2	4.109
240.2	4.097
242.2	4.09
244.2	4.091
246.2	4.101
248.2	4.122
251.401	4.175
253.401	4.212
255.401	4.245
257.401	4.276
259.401	4.302
261.401	4.324
263.401	4.339
265.401	4.35
267.401	4.354
269.401	4.354
271.401	4.347
273.401	4.336
275.401	4.32
275.437	4.319
277.437	4.299
279.437	4.279
281.437	4.261
283.437	4.245
285.437	4.23
287.437	4.213
289.437	4.192
291.437	4.164
293.437	4.126
295.437	4.078
297.42	4.023
299.164	3.962
300.164	3.933
301.164	3.895
302.164	3.851
303.164	3.802
304.164	3.75
305.164	3.696
306.164	3.643
307.164	3.591
308.164	3.542
309.164	3.497
310.164	3.458
310.243	3.456
312.243	3.398
314.243	3.372
316.243	3.36
318.243	3.353
320.243	3.348
322.243	3.345
324.243	3.345
326.243	3.346
326.272	3.346
328.272	3.341
330.272	3.337
332.272	3.329
334.272	3.317
336.272	3.299
338.272	3.275
340.272	3.245
342.272	3.209
344.272	3.168
346.272	3.121
348.272	3.069
350.255	3.007
352.255	2.946
354.255	2.893
356.255	2.851
358.255	2.819
360.255	2.799
362.255	2.789
364.255	2.788
366.255	2.795
368.255	2.808
370.255	2.825
372.255	2.845
374.255	2.866
376.255	2.887
378.255	2.907
380.255	2.925
382.255	2.944
384.255	2.962
386.255	2.983
388.51	3.008
390.51	3.028
392.51	3.047
394.51	3.067
396.51	3.086
398.51	3.105
400.51	3.124
402.51	3.142
404.51	3.16
406.51	3.178
408.51	3.195
410.51	3.211
412.51	3.227
414.51	3.242
416.51	3.257
418.51	3.271
420.51	3.284
422.51	3.297
424.51	3.309
426.51	3.32
428.51	3.33
430.51	3.34
432.51	3.349
434.51	3.356
436.51	3.363
438.51	3.37
440.51	3.375
442.51	3.379
444.51	3.382
446.51	3.385
448.51	3.386
450.51	3.387
452.51	3.386
454.51	3.385
456.51	3.383
458.51	3.379
460.51	3.375
462.51	3.37
464.51	3.364
466.51	3.357
468.51	3.348
470.51	3.339
472.51	3.329
474.51	3.318
476.51	3.307
478.51	3.294
480.51	3.28
482.51	3.266
484.51	3.25
486.51	3.234
488.51	3.217
490.51	3.199
492.51	3.18
494.51	3.161
496.51	3.141
498.51	3.12
500.51	3.098
502.51	3.076
504.51	3.053
506.51	3.029
508.51	3.005
510.51	2.98
512.51	2.955
514.51	2.929
516.51	2.903
518.51	2.876
520.51	2.848
522.51	2.82
524.51	2.792
526.51	2.763
528.51	2.734
530.51	2.704
532.51	2.674
534.51	2.643
536.51	2.612
538.51	2.581
540.51	2.549
542.51	2.517
544.51	2.485
546.51	2.452
548.51	2.419
550.51	2.386
552.51	2.352
