Uv/Vis Spectrum: 2,5-Dimethyl-p-benzoquinone
Formula: C8H8O2
CAS: 137-18-8
Melting point: 125
Instrument: Cary 11 MPS
Origin: INSTITUTE OF ENERGY PROBLEMS OF CHEMICAL PHYSICS, RAS
Wavelength (nm)	Logarithm epsilon
214.798	3.39565
214.969	3.39701
215.145	3.39828
215.33	3.39935
217.172	3.42193
217.32	3.4246
217.467	3.42717
217.615	3.42954
222.602	3.52821
222.685	3.53131
222.768	3.53441
222.85	3.53751
223.979	3.56904
224.063	3.57212
224.151	3.57511
224.25	3.5779
225.656	3.60953
225.703	3.61161
225.76	3.6135
225.822	3.61529
226.951	3.64682
227.145	3.65246
227.349	3.65791
227.557	3.66326
228.599	3.69651
228.71	3.69916
228.83	3.70172
228.956	3.70409
229.892	3.73555
229.918	3.73731
229.954	3.73908
229.994	3.74085
230.846	3.77053
231.014	3.77572
231.186	3.78071
231.368	3.78562
232.074	3.8113
232.179	3.81395
232.29	3.8165
232.41	3.81887
233.535	3.8539
233.619	3.857
233.707	3.8601
233.805	3.86321
234.741	3.89467
234.768	3.89643
234.803	3.8982
234.844	3.89996
236.053	3.93722
236.164	3.93976
236.285	3.94211
236.411	3.94436
237.261	3.9758
237.37	3.9802
237.49	3.98452
237.614	3.98863
238.388	4.00908
238.535	4.0122
238.682	4.01532
238.829	4.01844
240.037	4.05745
240.1	4.05923
240.162	4.061
240.225	4.06278
242.491	4.11488
242.66	4.11876
242.833	4.12244
243.017	4.12603
244.238	4.14839
244.35	4.15104
244.47	4.1536
244.596	4.15597
246.257	4.18944
246.342	4.19077
246.426	4.192
246.511	4.19304
247.754	4.21541
247.86	4.21806
247.97	4.22061
248.09	4.22298
249.337	4.2414
249.506	4.24528
249.679	4.24896
249.862	4.25255
251.09	4.26789
251.326	4.26798
251.561	4.26806
251.796	4.26815
253.574	4.26528
253.726	4.26356
253.877	4.26175
254.028	4.25974
255.561	4.24363
255.733	4.24369
255.91	4.24376
256.096	4.24382
257.346	4.23331
257.433	4.23289
257.524	4.23237
257.626	4.23166
259.666	4.22318
259.817	4.22149
259.968	4.21979
260.119	4.21809
261.295	4.19484
261.411	4.19135
261.537	4.18778
261.667	4.18401
262.056	4.15478
262.107	4.15304
262.167	4.15131
262.232	4.14958
263.16	4.11484
263.212	4.11134
263.274	4.10774
263.341	4.10395
264.075	4.07133
264.128	4.06653
264.19	4.06173
264.258	4.05693
264.824	4.02031
264.915	4.01507
265.011	4.00973
265.116	4.0042
265.595	3.96974
265.648	3.96492
265.711	3.96
265.779	3.9549
266.173	3.91865
266.226	3.91515
266.287	3.91155
266.354	3.90776
266.746	3.87502
266.796	3.87327
266.856	3.87142
266.921	3.86938
267.324	3.82394
267.377	3.81913
267.44	3.81433
267.508	3.80953
268.077	3.76941
268.079	3.76709
268.081	3.76457
268.083	3.76196
268.652	3.72183
268.655	3.71831
268.658	3.71469
268.662	3.71088
269.231	3.67119
269.233	3.66766
269.237	3.66405
269.24	3.66023
269.806	3.62361
269.809	3.62009
269.812	3.61647
269.815	3.61265
270.391	3.56551
270.415	3.56245
270.445	3.5594
270.484	3.55634
270.966	3.51794
270.992	3.51387
271.022	3.50961
271.062	3.50526
271.541	3.4708
271.545	3.46596
271.55	3.46103
271.554	3.4559
271.921	3.4271
271.989	3.42228
272.058	3.41737
272.126	3.41227
272.695	3.37258
272.698	3.36905
272.701	3.36544
272.704	3.36162
273.277	3.31755
273.329	3.31349
273.392	3.30925
273.459	3.3049
273.852	3.27041
273.907	3.26329
273.972	3.25597
274.042	3.24856
274.434	3.21582
274.488	3.2097
274.552	3.20359
274.62	3.19748
275.012	3.16474
275.063	3.163
275.123	3.16127
275.188	3.15954
275.759	3.11766
275.784	3.1136
275.815	3.10934
275.855	3.10498
276.159	3.07397
276.213	3.06915
276.276	3.06423
276.343	3.05913
276.912	3.01944
276.965	3.01538
277.027	3.01113
277.094	3.00679
277.488	2.97186
277.54	2.96781
277.603	2.96356
277.67	2.95921
278.066	2.92078
278.156	2.91554
278.247	2.91019
278.337	2.90466
278.819	2.86625
278.822	2.86273
278.825	2.85911
278.828	2.85529
279.394	2.81911
279.449	2.81199
279.514	2.80467
279.584	2.79726
279.97	2.77154
280.023	2.76673
280.086	2.76193
280.153	2.75713
280.906	2.72803
280.993	2.72531
281.082	2.72238
281.17	2.71936
282.009	2.6881
282.121	2.68406
282.237	2.67983
282.363	2.67551
283.284	2.64866
283.525	2.64261
283.765	2.63656
284.006	2.63051
286.733	2.56924
286.906	2.56709
287.085	2.56485
287.273	2.56242
288.897	2.54064
288.983	2.54022
289.069	2.5397
289.155	2.53898
291.4	2.51611
291.551	2.51441
291.702	2.51271
291.853	2.51101
293.554	2.49847
293.641	2.49805
293.733	2.49753
293.834	2.49682
298.217	2.47472
298.325	2.47476
298.438	2.4748
298.56	2.47484
305.173	2.44784
305.345	2.4479
305.522	2.44797
305.708	2.44803
307.318	2.4416
307.49	2.44166
307.666	2.44172
307.853	2.44179
313.567	2.41447
313.681	2.41451
313.803	2.41455
313.931	2.4146
315.538	2.41167
315.651	2.41171
315.774	2.41175
315.902	2.4118
317.858	2.40154
318.008	2.40114
318.158	2.40064
318.308	2.39995
322.155	2.38072
322.414	2.37906
322.677	2.3774
322.951	2.37575
324.673	2.36365
324.808	2.36325
324.952	2.36274
325.102	2.36205
326.803	2.34951
327.003	2.34783
327.213	2.34615
327.428	2.34447
328.961	2.32836
329.048	2.32794
329.139	2.32742
329.24	2.32671
330.947	2.30716
331.062	2.30545
331.186	2.30374
331.315	2.30203
332.913	2.28594
333.028	2.28378
333.152	2.28152
333.282	2.27906
334.728	2.26468
334.929	2.26199
335.14	2.25911
335.356	2.25613
336.693	2.24346
336.808	2.24118
336.933	2.23871
337.063	2.23614
