Uv/Vis Spectrum: Lidocaine hydrochloride
Formula: C14H22N2O
CAS: 137-58-6
Melting point: 76-79
Instrument: Hilger Uvispek
Origin: INSTITUTE OF ENERGY PROBLEMS OF CHEMICAL PHYSICS, RAS
Wavelength (nm)	Logarithm epsilon
205.25	4.289
205.45	4.285
205.73	4.278
206.16	4.27
206.62	4.26
207.27	4.247
207.96	4.238
208.64	4.224
209.32	4.21
209.99	4.193
210.67	4.18
211.35	4.166
212.03	4.149
212.7	4.129
213.38	4.112
214.06	4.095
214.74	4.078
215.41	4.057
216.09	4.033
216.77	4.016
217.45	3.989
218.12	3.962
218.8	3.938
219.48	3.914
220.15	3.887
220.83	3.86
221.51	3.829
222.19	3.798
222.86	3.775
223.54	3.751
224.22	3.737
224.9	3.717
225.57	3.7
226.25	3.683
226.93	3.669
227.61	3.649
228.28	3.632
228.96	3.611
229.64	3.587
230.32	3.57
230.99	3.55
231.67	3.526
232.35	3.506
233.03	3.485
233.7	3.461
234.38	3.438
235.06	3.417
235.74	3.39
236.41	3.366
237.09	3.335
237.77	3.305
238.45	3.264
239.12	3.23
239.8	3.192
240.48	3.158
241.16	3.135
241.83	3.111
242.51	3.084
243.19	3.053
243.87	3.026
244.54	2.998
245.22	2.968
245.9	2.941
246.58	2.91
247.25	2.883
247.93	2.852
248.61	2.825
249.29	2.794
249.96	2.76
250.64	2.726
251.32	2.696
252	2.672
252.67	2.648
253.35	2.631
254.03	2.614
254.71	2.597
255.35	2.587
255.98	2.578
256.62	2.57
257.42	2.559
258.09	2.553
258.77	2.549
259.45	2.549
260.13	2.549
260.8	2.549
261.48	2.549
262.1	2.551
262.81	2.555
263.51	2.559
264.19	2.563
264.87	2.563
265.55	2.556
266.22	2.549
266.9	2.539
267.58	2.525
268.26	2.512
268.93	2.488
269.61	2.464
270.29	2.444
270.97	2.427
271.63	2.423
272.32	2.43
272.69	2.437
273	2.427
273.68	2.372
274.35	2.311
275.03	2.222
275.71	2.127
276.39	2.059
276.94	1.997
277.74	1.892
278.42	1.787
279.1	1.685
279.77	1.586
