Uv/Vis Spectrum: Borazine,2,4,6-trifluoro-1,3,5-trimethyl-
Formula: C3H9B3F3N3
CAS: 13722-15-1
Instrument: McPherson 225
Origin: INSTITUTE OF ENERGY PROBLEMS OF CHEMICAL PHYSICS, RAS
Wavelength (nm)	Logarithm epsilon
123.12	4.318
123.17	4.318
123.23	4.315
123.39	4.311
123.55	4.308
123.71	4.301
123.87	4.298
124.03	4.291
124.19	4.287
124.36	4.284
124.52	4.28
124.68	4.277
124.85	4.27
125.01	4.266
125.18	4.263
125.34	4.256
125.51	4.249
125.67	4.246
126.01	4.235
126.17	4.232
126.51	4.225
126.68	4.218
126.85	4.215
127.02	4.211
127.19	4.204
127.36	4.201
127.53	4.197
127.7	4.194
127.87	4.187
128.05	4.183
128.22	4.176
128.39	4.173
128.57	4.166
128.74	4.159
129.09	4.149
129.27	4.145
129.44	4.138
129.62	4.131
129.8	4.128
129.97	4.121
130.15	4.114
130.33	4.111
130.51	4.104
130.69	4.1
130.87	4.097
131.05	4.086
131.23	4.083
131.41	4.08
131.6	4.076
131.78	4.069
131.96	4.066
132.14	4.066
132.33	4.066
132.51	4.066
132.7	4.066
132.88	4.069
133.07	4.069
133.26	4.073
133.45	4.073
133.63	4.073
133.82	4.066
134.01	4.073
134.2	4.073
134.39	4.073
134.58	4.073
134.77	4.069
134.96	4.069
135.15	4.069
135.35	4.069
135.54	4.069
135.73	4.069
135.93	4.069
136.12	4.069
136.32	4.069
136.52	4.069
136.71	4.069
136.91	4.069
137.11	4.066
137.31	4.062
137.5	4.062
137.9	4.066
138.1	4.069
138.31	4.073
138.51	4.083
138.71	4.09
138.91	4.097
139.12	4.1
139.32	4.107
139.52	4.114
139.73	4.118
139.94	4.121
140.14	4.128
140.35	4.128
140.56	4.135
140.77	4.135
140.98	4.138
141.18	4.142
141.4	4.145
141.61	4.145
142.03	4.149
142.24	4.152
142.46	4.152
142.67	4.152
142.88	4.152
143.1	4.152
143.32	4.159
143.53	4.163
143.75	4.166
143.97	4.17
144.19	4.173
144.41	4.18
144.63	4.183
144.85	4.187
145.07	4.187
145.29	4.183
145.51	4.176
145.74	4.176
145.96	4.176
146.18	4.173
146.41	4.173
146.64	4.17
146.86	4.17
147.09	4.166
147.55	4.176
147.78	4.18
148.01	4.183
148.24	4.19
148.47	4.19
148.7	4.19
148.94	4.183
149.41	4.176
149.64	4.18
149.88	4.18
150.11	4.18
150.35	4.183
150.59	4.183
150.83	4.183
151.07	4.183
151.55	4.19
151.79	4.194
152.04	4.197
152.28	4.204
152.53	4.211
152.77	4.218
153.02	4.225
153.27	4.232
153.51	4.235
153.76	4.242
154.01	4.249
154.26	4.253
154.51	4.26
154.76	4.263
155.02	4.266
155.27	4.273
155.52	4.28
155.78	4.284
156.29	4.291
156.55	4.291
156.81	4.291
157.07	4.287
157.33	4.298
157.59	4.298
157.85	4.308
158.12	4.318
158.38	4.325
158.64	4.325
158.91	4.325
159.18	4.325
159.44	4.325
159.71	4.318
159.98	4.311
160.25	4.301
160.52	4.294
160.79	4.287
161.07	4.28
161.34	4.27
161.61	4.273
161.89	4.253
162.17	4.242
162.44	4.235
162.72	4.225
163	4.215
163.28	4.204
163.56	4.194
163.85	4.183
164.13	4.176
164.41	4.166
164.7	4.152
164.98	4.138
165.27	4.121
165.56	4.107
165.85	4.097
166.14	4.08
166.43	4.066
166.72	4.055
167.02	4.052
167.31	4.028
167.61	4.014
167.9	4.003
168.2	3.986
168.5	3.972
168.8	3.958
169.1	3.948
169.4	3.934
170.31	3.9
170.62	3.882
170.93	3.865
171.23	3.851
171.54	3.834
171.85	3.82
172.17	3.799
172.48	3.796
172.79	3.785
173.42	3.768
173.74	3.758
174.06	3.747
174.38	3.744
174.7	3.737
175.35	3.72
175.67	3.695
176	3.671
176.32	3.644
176.65	3.616
176.98	3.561
177.31	3.505
177.64	3.46
177.97	3.401
178.31	3.356
178.64	3.315
178.98	3.27
179.32	3.228
179.66	3.183
180	3.138
180.34	3.097
180.68	3.048
181.03	3.014
181.38	2.983
181.72	2.952
182.07	2.917
182.42	2.886
182.77	2.851
183.12	2.81
183.48	2.803
183.83	2.792
184.19	2.779
184.55	2.765
184.91	2.751
185.27	2.737
185.63	2.723
185.99	2.72
186.36	2.716
186.73	2.713
187.09	2.709
187.46	2.709
187.83	2.702
188.58	2.702
188.96	2.702
189.33	2.706
189.71	2.706
190.09	2.709
190.47	2.709
191.24	2.713
191.63	2.713
192.01	2.716
192.4	2.716
192.79	2.713
193.19	2.713
193.58	2.716
193.98	2.716
194.37	2.713
194.77	2.713
195.17	2.709
195.57	2.706
195.98	2.702
196.38	2.702
196.79	2.699
197.61	2.685
198.02	2.671
198.44	2.664
198.85	2.654
199.27	2.644
199.69	2.626
200.11	2.609
200.53	2.581
200.96	2.55
201.38	2.516
201.81	2.484
202.24	2.45
202.67	2.408
203.1	2.322
203.54	2.239
203.98	2.173
204.42	2.107
204.86	2.041
205.3	1.952
205.75	1.882
206.19	1.782
206.64	1.661
