Uv/Vis Spectrum: Benzenamine, N,N-dimethyl-4-nitroso-
Formula: C8H10N2O
CAS: 138-89-6
Instrument: Varian 635
Origin: INSTITUTE OF ENERGY PROBLEMS OF CHEMICAL PHYSICS, RAS
Wavelength (nm)	Logarithm epsilon
284.51	3.587
287.91	3.52
290.75	3.427
294.15	3.328
298.69	3.224
303.79	3.147
308.01	3.097
312.15	3.05
315.4	3.022
318.8	2.994
324.22	2.976
329.32	2.976
334.43	2.976
339.34	2.995
344.51	3.029
349.54	3.094
354.28	3.2
358.82	3.309
362.79	3.397
366.76	3.483
369.6	3.576
372.44	3.644
374.71	3.71
376.54	3.758
379.25	3.825
381.51	3.87
383.22	3.915
385.49	3.952
386.62	3.99
388.32	4.025
390.02	4.057
392.29	4.084
393.43	4.113
395.13	4.139
396.26	4.164
397.4	4.188
398.53	4.211
400.24	4.232
401.37	4.252
402.5	4.272
403.64	4.29
405.34	4.308
406.48	4.325
407.61	4.342
408.75	4.358
410.45	4.373
412.15	4.388
413.28	4.402
414.42	4.416
415.55	4.43
417.25	4.443
418.39	4.455
419.52	4.468
421.23	4.48
422.93	4.491
424.63	4.503
426.33	4.514
428.03	4.523
430.87	4.533
433.71	4.541
438.24	4.544
447.89	4.529
448.46	4.527
449.02	4.524
449.59	4.522
450.16	4.52
450.73	4.517
451.29	4.515
452.43	4.509
454.7	4.491
456.97	4.472
459.24	4.451
461.5	4.427
463.77	4.402
466.04	4.373
468.31	4.335
470.58	4.302
472.85	4.263
475.12	4.22
477.39	4.162
479.66	4.1
481.93	4.006
484.2	3.906
486.47	3.801
488.73	3.687
491	3.555
493.27	3.381
495.54	3.247
497.81	3.052
500.08	2.828
