Uv/Vis Spectrum: 2-Methyl-5-vinylpyridine
Formula: C8H9N
CAS: 140-76-1
Boiling point: 181
Instrument: SF-4
Origin: INSTITUTE OF ENERGY PROBLEMS OF CHEMICAL PHYSICS, RAS
Wavelength (nm)	Logarithm epsilon
227.71	3.934
228.14	3.944
228.31	3.955
228.74	3.965
229	3.974
229.34	3.983
229.77	3.991
230.03	4
230.46	4.009
230.71	4.017
231.06	4.025
231.4	4.034
231.66	4.043
232	4.051
232.34	4.058
232.69	4.066
232.94	4.073
233.2	4.081
233.54	4.088
233.89	4.095
234.14	4.102
234.57	4.109
234.91	4.116
235.17	4.122
235.6	4.129
235.94	4.135
236.37	4.142
236.71	4.148
237.23	4.153
237.57	4.159
237.91	4.165
238.34	4.171
238.77	4.177
239.2	4.183
239.63	4.189
240.06	4.194
240.57	4.199
241	4.204
241.43	4.209
241.86	4.213
242.46	4.217
243.14	4.22
243.91	4.221
244.69	4.221
245.37	4.217
245.89	4.213
246.4	4.209
246.91	4.204
247.34	4.199
247.77	4.194
248.2	4.189
248.63	4.184
248.97	4.178
249.4	4.173
249.83	4.167
250.26	4.161
250.51	4.155
250.77	4.149
251.03	4.142
251.37	4.136
251.71	4.13
251.97	4.123
252.23	4.116
252.66	4.11
252.91	4.103
253.26	4.096
253.51	4.089
253.86	4.082
254.11	4.074
254.37	4.067
254.71	4.059
254.97	4.052
255.23	4.044
255.57	4.036
255.83	4.028
256.17	4.019
256.43	4.011
256.69	4.002
257.03	3.993
257.37	3.984
257.63	3.975
258.06	3.966
258.31	3.956
258.66	3.947
259	3.937
259.26	3.926
259.6	3.916
259.86	3.905
260.29	3.894
260.63	3.883
260.97	3.871
261.31	3.859
261.57	3.847
261.91	3.834
262.17	3.821
262.6	3.809
263.03	3.796
263.46	3.783
263.89	3.77
264.31	3.757
264.74	3.744
265.26	3.73
265.77	3.717
266.2	3.702
266.8	3.689
267.32	3.673
267.92	3.661
268.52	3.647
269.12	3.632
269.72	3.619
270.4	3.608
271.17	3.6
271.86	3.589
272.63	3.58
273.4	3.571
274.17	3.569
274.94	3.569
275.72	3.571
276.4	3.58
277.17	3.586
277.86	3.597
278.54	3.608
279.23	3.619
280	3.624
280.69	3.632
281.46	3.632
282.14	3.639
282.92	3.639
283.69	3.642
284.46	3.642
285.23	3.644
286	3.642
286.77	3.642
287.54	3.642
288.32	3.639
289.09	3.632
289.86	3.627
290.63	3.619
291.4	3.613
292.09	3.603
292.77	3.594
293.54	3.586
294.23	3.574
294.92	3.563
295.6	3.55
296.29	3.535
296.97	3.518
297.66	3.505
298.34	3.488
299.03	3.469
299.72	3.45
300.32	3.431
301	3.41
301.6	3.388
302.2	3.36
302.72	3.331
303.23	3.299
303.83	3.265
304.43	3.234
305.03	3.194
305.54	3.149
306.06	3.1
306.57	3.045
307.17	2.981
307.86	2.92
