Uv/Vis Spectrum: 4,5-Tetramethylene-1,2-dithiol-3-thione
Formula: C7H8S3
CAS: 14085-34-8
Melting point: 102
Instrument: Spektromom 201
Origin: INSTITUTE OF ENERGY PROBLEMS OF CHEMICAL PHYSICS, RAS
Wavelength (nm)	Logarithm epsilon
213.23	3.489
214.08	3.516
214.59	3.543
215.44	3.57
216.12	3.597
216.97	3.624
217.81	3.647
218.49	3.674
219.51	3.698
220.36	3.725
221.38	3.749
222.39	3.772
223.41	3.796
224.6	3.816
225.79	3.833
227.15	3.846
228.5	3.86
230.03	3.863
231.56	3.86
232.91	3.846
233.93	3.826
234.78	3.799
235.63	3.776
236.48	3.749
237.49	3.728
238.68	3.711
240.21	3.705
241.4	3.722
242.41	3.742
243.43	3.762
244.62	3.779
245.81	3.799
247	3.816
248.35	3.83
249.71	3.843
251.24	3.84
252.59	3.826
253.95	3.809
255.14	3.789
256.16	3.769
257.17	3.745
258.36	3.725
259.55	3.705
260.74	3.688
262.09	3.674
263.62	3.668
265.15	3.668
266.68	3.671
268.03	3.688
269.39	3.705
270.58	3.722
272.1	3.728
273.46	3.742
274.99	3.742
276.52	3.742
277.87	3.732
279.23	3.718
280.25	3.695
281.27	3.671
281.94	3.644
282.79	3.617
283.3	3.59
283.98	3.563
284.66	3.536
285.51	3.512
286.19	3.485
287.03	3.462
287.88	3.435
288.9	3.411
289.75	3.388
290.77	3.367
292.29	3.361
293.65	3.374
294.84	3.391
296.03	3.411
297.04	3.431
298.23	3.452
299.25	3.475
300.27	3.496
301.29	3.519
302.3	3.543
303.32	3.566
304.34	3.587
305.36	3.607
306.38	3.63
307.39	3.651
308.41	3.671
309.6	3.691
310.79	3.708
311.8	3.728
312.99	3.749
314.18	3.769
315.37	3.786
316.56	3.803
318.08	3.813
319.61	3.819
320.97	3.83
322.49	3.836
324.02	3.84
325.38	3.85
326.9	3.85
328.43	3.846
329.96	3.836
331.49	3.83
333.01	3.819
334.37	3.806
335.73	3.796
337.08	3.786
338.44	3.769
339.8	3.752
341.16	3.735
342.34	3.715
343.53	3.698
344.72	3.678
345.74	3.654
346.92	3.634
347.94	3.614
348.79	3.59
349.81	3.566
351	3.546
352.01	3.523
353.03	3.499
354.05	3.479
355.24	3.458
356.42	3.442
357.61	3.421
358.97	3.404
360.16	3.388
361.51	3.371
362.87	3.357
364.4	3.351
365.93	3.354
367.45	3.364
368.81	3.374
370.17	3.391
371.35	3.408
372.54	3.425
373.73	3.442
374.92	3.458
376.11	3.475
377.12	3.496
378.31	3.512
379.33	3.536
380.52	3.556
381.53	3.577
382.55	3.597
383.74	3.614
384.76	3.634
385.78	3.654
386.96	3.674
388.15	3.691
389.17	3.711
390.36	3.728
391.54	3.745
392.73	3.762
393.92	3.779
395.28	3.796
396.46	3.813
397.82	3.826
399.18	3.843
400.54	3.856
401.89	3.867
403.25	3.88
404.61	3.89
406.13	3.897
407.49	3.907
409.02	3.914
410.55	3.917
412.07	3.917
413.6	3.921
415.13	3.917
416.65	3.914
418.18	3.914
419.71	3.91
421.06	3.897
422.59	3.894
423.95	3.88
425.31	3.87
426.66	3.856
427.85	3.84
429.04	3.823
430.06	3.803
431.24	3.786
432.26	3.762
433.45	3.742
434.47	3.722
435.49	3.701
436.33	3.674
437.52	3.654
438.37	3.627
439.22	3.604
439.9	3.577
440.74	3.553
441.42	3.526
442.1	3.499
442.78	3.472
443.46	3.445
444.14	3.418
444.65	3.391
445.33	3.364
445.83	3.337
446.34	3.31
446.68	3.28
447.19	3.253
447.7	3.226
448.21	3.195
448.72	3.165
449.23	3.138
449.74	3.108
450.25	3.081
450.75	3.05
451.26	3.023
451.77	2.996
452.28	2.969
452.79	2.942
453.3	2.915
453.81	2.888
454.32	2.861
454.83	2.834
455.34	2.807
455.84	2.78
456.52	2.753
457.03	2.726
457.71	2.699
458.22	2.673
458.9	2.646
459.41	2.619
460.26	2.595
460.76	2.568
461.61	2.541
462.46	2.517
463.31	2.494
464.16	2.467
465.18	2.447
466.02	2.423
467.04	2.403
468.23	2.382
469.42	2.362
470.6	2.345
471.79	2.325
473.15	2.312
474.51	2.295
475.86	2.281
477.39	2.274
478.92	2.264
480.44	2.261
481.97	2.251
483.5	2.247
485.03	2.237
486.55	2.237
488.08	2.234
489.61	2.231
491.13	2.227
492.66	2.227
494.19	2.227
495.71	2.227
497.24	2.227
498.77	2.227
500.29	2.227
501.82	2.224
503.35	2.217
504.88	2.214
506.4	2.21
507.93	2.204
509.46	2.194
510.81	2.18
512.17	2.167
513.36	2.15
514.55	2.129
515.56	2.106
516.41	2.079
517.43	2.055
518.28	2.028
519.13	2.001
519.98	1.978
520.65	1.951
521.16	1.92
521.84	1.893
522.35	1.866
523.03	1.839
523.71	1.812
524.22	1.785
524.9	1.758
525.57	1.731
526.08	1.704
526.76	1.677
527.27	1.65
527.78	1.623
528.63	1.596
529.14	1.566
529.65	1.536
530.32	1.509
530.83	1.482
531.34	1.451
