Uv/Vis Spectrum: Cinnamic acid
Formula: C9H8O2
CAS: 140-10-3
Melting point: 133
Boiling point: 300
Instrument: n.i.g.
Origin: INSTITUTE OF ENERGY PROBLEMS OF CHEMICAL PHYSICS, RAS
Wavelength (nm)	Logarithm epsilon
220.28	5.288
221.01	5.278
221.87	5.259
222.17	5.248
222.54	5.228
222.92	5.208
223.3	5.181
223.67	5.158
224.05	5.131
224.43	5.116
224.8	5.093
225.18	5.078
225.56	5.072
225.93	5.063
226.31	5.06
226.69	5.057
227.06	5.055
227.44	5.055
227.82	5.053
228.19	5.055
228.57	5.057
228.95	5.058
229.32	5.058
229.7	5.063
230.08	5.065
230.45	5.067
230.83	5.068
231.21	5.07
231.58	5.072
231.96	5.077
232.34	5.078
232.71	5.08
233.09	5.082
233.47	5.083
233.84	5.085
234.22	5.09
234.6	5.091
234.97	5.094
235.35	5.096
235.73	5.098
236.1	5.101
236.48	5.104
236.85	5.105
237.23	5.108
237.61	5.11
237.98	5.113
238.36	5.115
238.74	5.118
239.11	5.12
239.49	5.123
239.87	5.125
240.24	5.128
240.62	5.131
241	5.134
241.37	5.138
241.75	5.141
242.13	5.145
242.5	5.148
242.88	5.151
243.26	5.153
243.63	5.159
244.01	5.162
244.39	5.166
244.76	5.168
245.14	5.174
245.52	5.176
245.89	5.183
246.27	5.187
246.65	5.19
247.02	5.194
247.4	5.199
247.78	5.204
248.15	5.21
248.53	5.214
248.91	5.217
249.28	5.223
249.66	5.227
250.04	5.231
250.41	5.238
250.79	5.243
251.17	5.247
251.54	5.252
251.92	5.256
252.3	5.263
252.67	5.268
253.05	5.272
253.43	5.276
253.8	5.281
254.18	5.286
254.56	5.29
254.93	5.293
255.31	5.298
255.69	5.301
256.06	5.304
256.44	5.306
256.82	5.31
257.19	5.312
257.57	5.316
257.95	5.319
258.32	5.321
258.7	5.324
259.08	5.325
259.45	5.327
259.83	5.33
260.21	5.331
260.58	5.333
260.96	5.335
261.34	5.335
261.71	5.336
262.09	5.339
262.47	5.34
262.84	5.341
263.22	5.341
263.6	5.342
263.97	5.342
264.35	5.343
264.73	5.343
265.1	5.343
265.48	5.342
265.86	5.341
266.23	5.34
266.61	5.338
266.99	5.338
267.36	5.337
267.74	5.335
268.12	5.334
268.49	5.331
268.87	5.329
269.25	5.327
269.62	5.324
270	5.322
270.38	5.319
270.75	5.316
271.13	5.314
271.51	5.311
271.88	5.307
272.26	5.303
272.64	5.299
273.01	5.295
273.39	5.291
273.77	5.286
274.14	5.281
274.52	5.276
274.9	5.27
275.27	5.266
275.65	5.259
276.03	5.252
276.4	5.246
276.78	5.241
277.16	5.234
277.53	5.227
277.91	5.219
278.29	5.211
278.66	5.207
279.04	5.199
279.42	5.192
279.79	5.185
280.17	5.179
280.55	5.172
280.92	5.164
281.3	5.158
281.68	5.151
282.05	5.144
282.43	5.137
282.81	5.129
283.18	5.122
283.56	5.115
283.94	5.108
284.31	5.099
284.69	5.091
285.07	5.082
285.44	5.073
285.82	5.067
286.2	5.06
286.57	5.05
286.95	5.041
287.33	5.032
287.7	5.024
288.08	5.015
288.46	5.009
288.83	4.998
289.21	4.99
289.59	4.981
289.96	4.973
290.34	4.965
290.72	4.956
291.09	4.95
291.47	4.941
291.85	4.932
292.22	4.925
292.6	4.918
292.98	4.908
293.35	4.903
293.73	4.893
294.11	4.886
294.48	4.878
294.86	4.87
295.24	4.862
295.61	4.857
295.99	4.848
296.38	4.839
296.76	4.83
297.15	4.821
297.54	4.813
297.93	4.804
298.25	4.798
298.63	4.789
299	4.779
299.39	4.77
299.76	4.762
300.15	4.753
300.51	4.745
300.91	4.736
301.26	4.727
301.64	4.716
