Uv/Vis Spectrum: Benzene, 1,3-diethyl-
Formula: C10H14
CAS: 141-93-5
Boiling point: 181.1
Instrument: unknown
Origin: INSTITUTE OF ENERGY PROBLEMS OF CHEMICAL PHYSICS, RAS
Wavelength (nm)	Logarithm epsilon
228.13	2.378
228.18	2.378
228.3	2.335
228.47	2.288
228.64	2.249
228.81	2.195
228.98	2.144
229.15	2.091
229.32	2.054
229.49	2.011
229.66	1.974
229.83	1.937
230	1.894
230.17	1.86
230.34	1.826
230.51	1.795
230.68	1.764
230.85	1.728
231.02	1.707
231.19	1.677
231.36	1.653
231.52	1.628
231.69	1.596
231.86	1.567
232.03	1.547
232.2	1.531
232.37	1.509
232.54	1.491
232.71	1.473
232.88	1.454
233.05	1.434
233.17	1.421
233.29	1.408
233.43	1.396
233.55	1.385
233.7	1.376
233.84	1.366
233.99	1.356
234.15	1.345
234.4	1.333
234.61	1.329
234.91	1.327
235.14	1.329
235.29	1.332
235.42	1.336
235.58	1.341
235.77	1.347
235.93	1.352
236.11	1.358
236.25	1.365
236.42	1.373
236.61	1.384
236.76	1.393
236.9	1.402
237.09	1.413
237.29	1.427
237.43	1.439
237.63	1.454
237.8	1.467
237.96	1.479
238.12	1.493
238.34	1.508
238.48	1.518
238.63	1.528
238.8	1.537
238.98	1.547
239.13	1.556
239.32	1.567
239.49	1.577
239.66	1.587
239.83	1.596
240	1.607
240.17	1.614
240.34	1.626
240.51	1.636
240.68	1.645
240.85	1.653
241.02	1.661
241.18	1.671
241.35	1.681
241.52	1.684
241.69	1.696
241.85	1.703
242.03	1.71
242.21	1.72
242.37	1.728
242.55	1.735
242.71	1.745
242.89	1.753
243.05	1.761
243.22	1.769
243.39	1.774
243.59	1.782
243.73	1.789
243.87	1.796
244.07	1.803
244.21	1.811
244.4	1.818
244.57	1.821
244.74	1.829
244.91	1.837
245.08	1.845
245.25	1.85
245.42	1.858
245.59	1.863
245.76	1.87
245.93	1.875
246.1	1.883
246.27	1.89
246.44	1.894
246.61	1.903
246.77	1.908
246.95	1.915
247.13	1.92
247.29	1.926
247.43	1.931
247.62	1.937
247.8	1.944
247.95	1.95
248.13	1.956
248.31	1.962
248.47	1.968
248.64	1.976
248.82	1.985
248.98	1.993
249.15	2.002
249.32	2.011
249.49	2.022
249.66	2.032
249.83	2.042
250	2.05
250.16	2.057
250.34	2.063
250.51	2.068
250.68	2.074
250.85	2.081
251.01	2.084
251.18	2.09
251.35	2.094
251.52	2.098
251.69	2.103
251.86	2.109
252.03	2.111
252.2	2.117
252.37	2.119
252.54	2.124
252.71	2.126
252.88	2.131
253.05	2.132
253.22	2.138
253.39	2.142
253.56	2.144
253.73	2.15
253.9	2.156
254.07	2.161
254.23	2.168
254.4	2.172
254.57	2.179
254.74	2.186
254.91	2.192
255.08	2.2
255.25	2.207
255.42	2.214
255.59	2.223
255.76	2.229
255.93	2.235
256.1	2.239
256.27	2.244
256.44	2.249
256.61	2.253
256.78	2.256
256.95	2.259
257.12	2.262
257.29	2.264
257.45	2.265
257.62	2.268
257.79	2.269
257.96	2.269
258.13	2.27
258.3	2.27
258.47	2.27
258.64	2.269
258.81	2.269
258.98	2.27
259.15	2.27
259.32	2.27
259.49	2.27
259.66	2.27
259.83	2.271
260	2.274
260.17	2.275
260.34	2.279
260.51	2.284
260.67	2.289
260.84	2.296
261.01	2.302
261.18	2.307
261.35	2.315
261.52	2.323
261.69	2.332
261.86	2.342
262.03	2.351
262.2	2.358
262.37	2.363
262.54	2.367
262.71	2.37
262.88	2.372
263.05	2.374
263.22	2.376
263.39	2.378
263.56	2.38
263.73	2.383
263.89	2.387
264.06	2.39
264.23	2.392
264.4	2.392
264.57	2.391
264.74	2.391
264.91	2.388
265.08	2.385
265.25	2.382
265.42	2.378
265.58	2.368
265.76	2.348
265.93	2.32
266.1	2.289
266.27	2.264
266.44	2.25
266.61	2.242
266.78	2.237
266.95	2.232
267.11	2.231
267.28	2.231
267.45	2.232
267.62	2.237
267.79	2.242
267.96	2.249
268.13	2.255
268.3	2.258
268.47	2.259
268.64	2.253
268.81	2.248
268.98	2.242
269.15	2.235
269.32	2.222
269.49	2.207
269.66	2.188
269.83	2.176
270	2.172
270.17	2.172
270.34	2.176
270.5	2.182
270.67	2.193
270.84	2.207
271.01	2.225
271.18	2.239
271.35	2.257
271.52	2.275
271.69	2.294
271.86	2.31
272.03	2.32
272.2	2.325
272.37	2.324
272.54	2.315
272.71	2.292
272.81	2.264
272.88	2.231
272.96	2.195
273.05	2.161
273.12	2.124
273.22	2.077
273.31	2.044
273.4	1.999
273.56	1.937
273.72	1.89
273.89	1.842
274.06	1.801
274.23	1.761
274.4	1.728
274.57	1.692
274.74	1.657
274.91	1.619
275.08	1.577
275.25	1.536
275.42	1.497
275.59	1.454
275.76	1.413
275.93	1.368
276.1	1.327
276.27	1.291
276.44	1.241
276.61	1.197
276.74	1.166
276.91	1.126
277.09	1.078
277.28	1.027
277.45	0.972
277.65	0.903
277.79	0.835
277.96	0.778
278.13	0.711
278.3	0.537
