Uv/Vis Spectrum: 2-Thiouracil
Formula: C4H4N2OS
CAS: 141-90-2
Melting point: > 340 dec
Instrument: Baush and Lomb spectrograph
Origin: INSTITUTE OF ENERGY PROBLEMS OF CHEMICAL PHYSICS, RAS
Wavelength (nm)	Logarithm epsilon
252.95	3.717
253.21	3.724
254	3.748
254.84	3.773
255.68	3.799
256.53	3.824
257.5	3.852
258.21	3.868
259.05	3.888
260.12	3.91
260.74	3.922
261.54	3.933
262.42	3.945
263.26	3.959
264.11	3.971
264.95	3.982
265.79	3.99
266.63	3.999
267.45	4.007
268.32	4.014
269.18	4.02
269.93	4.025
270.82	4.028
271.66	4.03
272.53	4.031
273.37	4.031
274.21	4.031
275.14	4.03
275.89	4.029
277.58	4.024
278.42	4.023
279.26	4.02
280.11	4.018
281.79	4.012
282.63	4.009
283.47	4.006
284.32	4.003
285.17	3.999
286	3.994
286.84	3.99
287.68	3.986
288.54	3.98
289.37	3.973
290.21	3.963
291.14	3.949
292.11	3.935
292.89	3.923
293.58	3.912
294.48	3.899
295.26	3.888
296.07	3.873
297.13	3.851
297.79	3.832
298.63	3.811
299.47	3.786
300.32	3.76
301.08	3.743
302	3.723
302.84	3.71
