Uv/Vis Spectrum: 1-(methylthio)-2-propanone
Formula: C4H8OS
CAS: 14109-72-9
Melting point: 152.5-153
Instrument: Cary 14
Origin: INSTITUTE OF ENERGY PROBLEMS OF CHEMICAL PHYSICS, RAS
Wavelength (nm)	Logarithm epsilon
226.025	2.644
227.051	2.564
228.087	2.526
229.132	2.502
229.146	2.501
230.201	2.485
231.265	2.479
232.34	2.48
233.425	2.488
234.465	2.502
235.569	2.519
236.685	2.535
237.81	2.548
238.947	2.559
240.094	2.566
241.253	2.571
242.422	2.573
243.6	2.572
244.793	2.566
245.997	2.556
247.214	2.541
248.442	2.522
249.683	2.497
250.936	2.47
250.989	2.469
252.255	2.434
253.534	2.395
254.826	2.352
256.131	2.305
257.45	2.256
258.783	2.206
260.129	2.154
261.49	2.104
262.864	2.057
264.254	2.014
265.658	1.978
267.077	1.951
268.511	1.933
269.961	1.926
271.426	1.929
272.908	1.942
274.405	1.964
275.912	1.99
277.443	2.022
278.991	2.055
280.556	2.09
282.139	2.123
283.74	2.156
285.36	2.187
286.998	2.216
288.655	2.244
290.331	2.269
292.026	2.29
293.742	2.309
295.478	2.322
297.234	2.33
297.253	2.332
299.031	2.345
300.83	2.351
302.651	2.35
304.494	2.342
306.36	2.328
308.248	2.31
310.16	2.287
312.096	2.261
314.057	2.229
316.042	2.189
318.052	2.14
320.088	2.079
322.151	2.002
324.24	1.914
326.356	1.834
