Uv/Vis Spectrum: Propane, 2-(ethylthio)-2-methyl-
Formula: C6H14S
CAS: 14290-92-7
Instrument: unknown
Origin: INSTITUTE OF ENERGY PROBLEMS OF CHEMICAL PHYSICS, RAS
Wavelength (nm)	Logarithm epsilon
206.35	3.073
206.52	3.077
206.69	3.086
206.86	3.09
207.02	3.099
207.19	3.107
208.03	3.163
208.86	3.207
209.7	3.25
210.54	3.284
211.37	3.31
212.21	3.336
213.04	3.345
213.88	3.34
214.72	3.332
215.55	3.314
216.39	3.289
217.22	3.228
218.06	3.168
218.9	3.099
219.73	3.043
220.57	2.982
221.41	2.943
222.24	2.879
223.08	2.818
223.91	2.753
224.75	2.693
225.59	2.65
226.42	2.607
227.26	2.559
228.09	2.499
228.93	2.447
229.77	2.387
230.6	2.326
231.44	2.279
232.27	2.236
233.11	2.175
233.95	2.115
234.78	2.054
235.62	1.994
236.46	1.925
237.29	1.882
238.13	1.817
238.96	1.757
239.8	1.696
240.64	1.644
241.47	1.593
242.31	1.536
243.14	1.493
243.98	1.442
244.82	1.394
245.65	1.347
246.49	1.291
247.33	1.243
248.16	1.196
249	1.157
249.83	1.114
250.67	1.07
251.51	1.027
252.34	0.98
253.18	0.937
254.01	0.898
254.85	0.859
255.69	0.82
256.52	0.79
257.36	0.751
258.19	0.721
259.03	0.686
259.87	0.656
260.7	0.622
261.54	0.6
262.38	0.574
263.21	0.548
264.05	0.527
264.88	0.501
265.72	0.475
266.56	0.462
267.39	0.445
268.23	0.423
269.06	0.402
269.9	0.384
270.74	0.363
271.57	0.345
272.41	0.332
273.25	0.315
274.08	0.298
274.92	0.281
275.74	0.264
276.59	0.251
277.43	0.242
278.26	0.233
279.1	0.22
279.84	0.21
280.77	0.199
281.61	0.194
282.43	0.186
283.28	0.177
284.12	0.169
284.95	0.156
