Uv/Vis Spectrum: 1,6-dihydro-4-hydroxy-6-oxo-5-pyrimidinecarboxaldehyde
Formula: C5H4N2O3
CAS: 14256-99-6
Melting point: 245-250 dec.
Instrument: Specord UV-Vis
Origin: INSTITUTE OF ENERGY PROBLEMS OF CHEMICAL PHYSICS, RAS
Wavelength (nm)	Logarithm epsilon
197.145	3.869
198.09	3.88
198.89	3.894
199.69	3.911
200.49	3.931
201.29	3.951
202.09	3.972
202.904	3.993
203.704	4.013
204.504	4.032
205.304	4.052
206.104	4.071
206.904	4.091
207.704	4.111
208.504	4.13
209.304	4.149
210.104	4.167
210.904	4.184
211.704	4.199
212.504	4.213
213.304	4.225
214.104	4.236
214.904	4.244
215.704	4.249
216.504	4.253
217.304	4.253
218.104	4.251
218.904	4.246
219.704	4.238
220.504	4.227
221.304	4.211
222.104	4.192
222.904	4.169
223.704	4.14
224.504	4.104
225.725	4.035
226.745	3.987
227.766	3.931
228.787	3.903
229.808	3.844
230.828	3.796
231.849	3.742
232.87	3.706
233.89	3.663
234.911	3.632
235.932	3.594
236.952	3.564
237.973	3.536
238.994	3.508
240.015	3.482
241.035	3.457
242.056	3.436
243.077	3.421
244.097	3.406
245.118	3.393
246.139	3.383
247.159	3.375
249.201	3.365
250.222	3.36
251.242	3.352
252.263	3.342
253.114	3.331
254.304	3.314
255.325	3.296
256.346	3.276
257.367	3.255
258.387	3.235
259.408	3.222
260.429	3.209
261.449	3.202
262.47	3.194
263.491	3.192
264.511	3.187
265.532	3.184
266.553	3.181
267.574	3.181
268.594	3.187
269.583	3.191
270.383	3.195
271.183	3.201
271.983	3.207
272.783	3.214
273.583	3.222
274.383	3.231
275.183	3.241
275.983	3.251
276.783	3.262
277.583	3.273
278.383	3.284
279.183	3.296
279.983	3.308
280.783	3.321
281.583	3.333
282.383	3.346
283.183	3.359
283.983	3.372
284.783	3.385
285.583	3.398
286.383	3.41
287.183	3.423
287.983	3.435
288.783	3.448
289.583	3.46
290.383	3.471
291.183	3.483
291.983	3.494
292.783	3.505
293.583	3.515
294.383	3.525
295.183	3.534
295.983	3.543
296.783	3.552
297.583	3.56
298.383	3.567
299.183	3.574
299.983	3.58
300.783	3.586
301.583	3.591
302.383	3.595
303.183	3.598
303.983	3.601
304.783	3.603
305.583	3.604
306.383	3.604
307.183	3.603
307.983	3.601
308.783	3.598
309.583	3.594
310.383	3.59
311.183	3.583
311.983	3.576
312.783	3.568
313.583	3.558
314.383	3.547
315.183	3.534
315.281	3.532
316.081	3.521
316.881	3.507
317.681	3.492
318.481	3.475
319.281	3.458
320.081	3.44
320.881	3.422
321.681	3.404
322.481	3.386
323.281	3.368
324.081	3.35
324.881	3.333
325.681	3.316
326.481	3.299
327.281	3.283
328.081	3.266
328.881	3.25
329.681	3.233
330.481	3.216
331.281	3.2
332.081	3.183
332.881	3.165
333.681	3.148
334.481	3.13
335.281	3.112
336.081	3.094
336.881	3.076
337.681	3.059
338.481	3.042
