Uv/Vis Spectrum: Benzenamine, hydrochloride
Formula: C6H8ClN
CAS: 142-04-1
Boiling point: 185-186
Instrument: Beckman DU
Origin: INSTITUTE OF ENERGY PROBLEMS OF CHEMICAL PHYSICS, RAS
Wavelength (nm)	Logarithm epsilon
208.81	3.518
209.49	3.46
210.17	3.294
210.85	3.155
211.53	3.026
212.2	2.863
212.88	2.687
213.56	2.527
214.24	2.378
214.92	2.185
215.59	1.991
216.27	1.798
216.95	1.608
217.63	1.421
218.31	1.278
218.99	1.078
219.66	1.054
220.34	1.044
221.02	1.048
222.38	1.065
222.71	1.072
222.88	1.077
223.05	1.085
223.22	1.091
223.39	1.097
223.56	1.105
223.73	1.112
224.75	1.156
225.94	1.207
227.12	1.261
228.31	1.312
229.49	1.367
230.68	1.428
231.87	1.482
233.05	1.547
234.24	1.591
236.61	1.696
237.8	1.747
240.17	1.849
240.68	1.862
241.7	1.899
242.21	1.927
242.72	1.94
243.23	1.964
243.73	1.974
244.24	1.981
244.75	1.978
245.26	1.981
245.77	1.991
246.28	2.011
246.78	2.032
247.29	2.056
247.8	2.086
248.31	2.1
248.82	2.113
249.33	2.113
249.84	2.089
250.34	2.059
250.85	2.032
251.36	2.028
251.87	2.042
252.38	2.059
252.89	2.083
253.4	2.13
253.9	2.151
254.41	2.171
254.92	2.174
255.43	2.147
255.94	2.11
256.45	2.066
256.96	2.042
257.46	1.994
257.97	1.974
258.48	1.964
258.99	1.967
259.5	1.978
260.01	2.042
260.52	2.076
261.02	2.056
261.53	1.967
262.04	1.896
262.55	1.825
263.06	1.699
263.57	1.631
264.07	1.55
264.58	1.468
265.09	1.394
265.6	1.306
266.11	1.231
266.62	1.163
267.13	1.088
267.63	1.031
269.67	0.736
270.18	0.61
271.19	0.42
271.7	0.322
272.21	0.233
