Uv/Vis Spectrum: 2H-Pyran, tetrahydro-
Formula: C5H10O
CAS: 142-68-7
Melting point: -45
Boiling point: 88
Instrument: Hilger fluorite prism spectrograph
Origin: INSTITUTE OF ENERGY PROBLEMS OF CHEMICAL PHYSICS, RAS
Wavelength (nm)	Logarithm epsilon
194.058	2.41568
193.887	2.46399
193.762	2.49451
193.72	2.49849
193.697	2.50058
193.633	2.50114
193.599	2.50151
193.467	2.45917
193.4	2.44643
193.314	2.44524
193.269	2.44455
193.229	2.4462
193.206	2.44702
193.049	2.48162
192.99	2.49876
192.96	2.71048
192.95	2.68254
192.934	2.52805
192.922	2.5987
192.913	2.57076
192.905	2.54282
192.762	2.72253
192.722	2.74307
192.638	2.78416
192.611	2.78435
192.557	2.7849
192.516	2.78187
192.435	2.77581
192.377	2.75189
192.264	2.69637
192.159	2.64947
192.132	2.64944
192.113	2.64197
192.111	2.64664
192.079	2.64936
192.004	2.65935
191.879	2.66926
191.87	2.68072
191.849	2.70363
191.828	2.70509
191.782	2.708
191.775	2.71437
191.768	2.72078
191.746	2.70482
191.705	2.70258
191.674	2.68746
191.615	2.65742
191.585	2.65527
191.526	2.65114
191.522	2.64519
191.515	2.63349
191.447	2.6653
191.348	2.69507
191.342	2.69973
191.326	2.70906
191.298	2.69585
191.247	2.6969
191.204	2.69402
191.195	2.69805
191.185	2.68853
191.142	2.69924
191.105	2.7061
191.034	2.72904
190.946	2.73174
190.767	2.73737
190.761	2.73934
190.745	2.7435
190.703	2.73558
190.674	2.73384
190.627	2.7167
190.55	2.69203
190.523	2.7194
190.485	2.73697
190.48	2.75757
190.473	2.79876
190.442	2.80069
190.376	2.80478
190.305	2.80468
190.159	2.80448
190.113	2.82991
190.017	2.88095
189.997	2.8829
189.951	2.88702
189.943	2.89636
189.924	2.91523
189.89	2.88375
189.861	2.88073
189.835	2.86562
189.787	2.8356
189.767	2.83345
189.73	2.82936
189.679	2.8278
189.576	2.82489
189.566	2.81362
189.546	2.79128
189.525	2.76301
189.513	2.77112
189.499	2.77933
189.485	2.78759
189.456	2.78585
189.454	2.78924
189.435	2.78949
189.391	2.79021
189.319	2.80014
189.231	2.80846
189.179	2.85463
189.125	2.89893
189.07	2.88937
189.02	2.8876
188.997	2.88672
188.925	2.8571
188.891	2.84238
188.761	2.83562
188.696	2.83233
188.66	2.82364
188.607	2.82604
188.534	2.83189
188.496	2.8348
188.467	2.88277
188.438	2.90163
188.401	2.91172
188.359	2.90767
188.329	2.907
188.315	2.90676
188.247	2.89488
188.162	2.87043
188.158	2.87977
188.156	2.88444
188.064	2.88509
188.02	2.8853
187.95	2.88223
187.916	2.88069
187.908	2.87522
187.905	2.87261
187.858	2.86788
187.821	2.85746
187.817	2.86632
187.769	2.86731
187.711	2.89186
187.68	2.90414
187.628	2.90641
187.602	2.90763
187.404	2.90703
187.374	2.90624
187.37	2.89454
187.343	2.87624
187.34	2.8834
187.339	2.88686
187.182	2.88694
187.114	2.88568
186.986	2.8665
186.927	2.86778
186.785	2.89567
186.714	2.90973
186.455	2.90935
186.326	2.90916
186.255	2.89758
186.217	2.88606
186.175	2.87453
186.155	2.88044
186.143	2.8834
186.109	2.8859
186.006	2.90104
185.953	2.90861
185.883	2.91317
185.847	2.91546
185.807	2.9154
185.786	2.91537
185.734	2.90127
185.706	2.89422
185.667	2.88439
185.644	2.88903
185.632	2.89135
185.603	2.893
185.54	2.90144
185.495	2.90346
185.484	2.91046
185.451	2.90701
185.417	2.90247
185.37	2.88926
185.367	2.89627
185.365	2.89987
185.329	2.88671
185.313	2.87968
185.311	2.88556
185.215	2.90135
185.211	2.91196
185.209	2.91727
185.171	2.9194
185.151	2.92058
185.062	2.91938
185.017	2.91868
184.962	2.91265
184.932	2.90963
184.855	2.90733
184.817	2.90606
184.767	2.90817
184.742	2.90934
184.675	2.93155
184.639	2.94275
184.562	2.94263
184.523	2.94257
184.467	2.93903
184.438	2.93713
184.342	2.92299
184.301	2.9193
184.27	2.91755
184.257	2.91371
184.241	2.92027
184.233	2.90603
184.212	2.97078
184.195	2.99603
184.049	3.03825
183.992	3.06348
183.904	3.14076
183.825	3.18939
183.803	3.19373
183.763	3.19652
183.757	3.20267
183.741	3.21496
183.706	3.19389
183.678	3.19108
183.626	3.16604
183.523	3.10179
183.444	3.04962
183.423	3.03967
183.249	3.03878
183.163	3.03842
183.116	3.03417
183.051	3.03294
183.012	3.03464
182.991	3.03561
182.822	3.07593
182.738	3.09618
182.649	3.1277
182.605	3.14356
182.557	3.23239
182.552	3.25403
182.551	3.2758
182.507	3.28975
182.484	3.29672
182.382	3.30402
182.339	3.30542
182.28	3.33294
182.25	3.3467
182.172	3.35056
182.121	3.35181
182.05	3.35872
182.014	3.36227
181.949	3.36168
181.916	3.36126
181.882	3.35589
181.864	3.35311
181.775	3.29358
181.683	3.23389
181.65	3.22173
181.585	3.19741
181.559	3.19419
181.504	3.18773
181.463	3.18703
181.379	3.18562
181.371	3.19403
181.362	3.22216
181.333	3.28997
181.3	3.34799
181.277	3.35481
181.265	3.35834
181.143	3.35864
181.082	3.3589
181.017	3.41112
180.983	3.43734
180.879	3.44141
180.794	3.4432
180.74	3.46951
180.711	3.48279
180.638	3.48747
180.597	3.48877
180.544	3.48464
180.516	3.48248
180.331	3.42158
180.268	3.4018
180.121	3.39753
180.046	3.39529
179.989	3.3882
179.939	3.38535
179.884	3.38824
179.854	3.38968
179.827	3.42216
179.798	3.46871
179.766	3.5251
179.728	3.58708
179.707	3.61884
179.636	3.64832
179.614	3.65119
179.538	3.65178
179.488	3.65098
179.398	3.63503
179.321	3.61822
179.218	3.55581
179.165	3.52452
179.098	3.51531
179.059	3.51373
179.005	3.51534
178.976	3.51614
178.929	3.54135
178.904	3.55405
178.863	3.60752
178.821	3.66107
178.799	3.6879
178.76	3.69549
178.739	3.69928
178.656	3.70558
178.613	3.70885
178.545	3.72282
178.509	3.72992
178.454	3.7326
178.425	3.73403
178.376	3.74208
178.351	3.74623
178.257	3.7514
178.21	3.75407
178.148	3.75348
178.115	3.75307
177.862	3.69188
177.818	3.68462
177.752	3.68451
177.72	3.68446
177.405	3.75605
177.291	3.78168
177.257	3.78269
177.239	3.78329
177.106	3.77324
177.04	3.7681
176.953	3.76561
176.909	3.76427
176.797	3.75347
176.74	3.74807
176.624	3.74788
176.566	3.74778
176.297	3.78118
176.189	3.79304
176.137	3.79295
176.109	3.7929
176.074	3.78987
176.056	3.78836
175.939	3.78948
175.843	3.79246
175.742	3.78229
175.689	3.77819
175.603	3.78176
175.552	3.78667
175.396	3.7854
175.342	3.78547
175.226	3.79625
175.165	3.80025
175.042	3.80472
174.979	3.80695
174.653	3.80533
174.44	3.80243
174.181	3.79354
174.016	3.7877
173.642	3.76709
173.456	3.75679
173.142	3.73034
172.983	3.71712
172.416	3.65266
172.067	3.61263
171.941	3.59701
171.818	3.57971
171.734	3.57116
171.588	3.55157
171.516	3.54168
171.12	3.50131
170.972	3.48423
170.542	3.45092
170.108	3.41919
169.769	3.39497
169.157	3.34783
168.675	3.30382
168.234	3.25971
168.206	3.25562
168.151	3.24724
