Uv/Vis Spectrum: Cyclopentene
Formula: C5H8
CAS: 142-29-0
Melting point: -135.1
Boiling point: 44.2
Instrument: Hilger fluorite prism spectrograph
Origin: INSTITUTE OF ENERGY PROBLEMS OF CHEMICAL PHYSICS, RAS
Wavelength (nm)	Logarithm epsilon
211.323	1.50587
211.267	1.54362
211.166	1.59341
210.97	1.67965
210.821	1.74406
210.523	1.84351
210.35	1.89779
210.202	1.93723
210.027	1.96161
209.985	1.96215
209.97	1.97254
209.959	1.97788
209.908	1.96918
209.87	1.98209
209.81	1.98651
209.727	1.99491
209.501	2.06195
209.385	2.09561
209.189	2.09826
209.09	2.09976
209.022	2.13625
208.984	2.1545
208.831	2.16492
208.754	2.17027
208.609	2.21356
208.523	2.22786
208.411	2.22915
208.373	2.23395
208.321	2.23168
208.203	2.23706
208.137	2.28559
208.1	2.31003
208.003	2.31517
207.972	2.32996
207.954	2.31792
207.872	2.32329
207.834	2.31795
207.794	2.31796
207.754	2.32331
207.754	2.32144
207.753	2.31797
207.698	2.32584
207.698	2.32397
207.698	2.3205
207.622	2.32586
207.581	2.32587
207.379	2.37466
207.278	2.3992
207.131	2.41116
207.046	2.42252
207.038	2.41468
206.99	2.42474
206.934	2.42695
206.874	2.42917
206.804	2.43871
206.766	2.44366
206.69	2.44526
206.649	2.4462
206.635	2.45824
206.568	2.45156
206.567	2.44969
206.567	2.44622
206.376	2.45319
206.28	2.45414
206.099	2.48374
206.005	2.49854
205.91	2.50015
205.862	2.50109
205.847	2.50622
205.774	2.50111
205.699	2.50113
205.665	2.50114
205.665	2.49769
205.577	2.50399
205.32	2.5132
205.213	2.52482
205.212	2.51791
205.212	2.51445
205.127	2.51532
205.091	2.52705
204.97	2.52928
204.849	2.53151
204.796	2.53844
204.769	2.54191
204.695	2.54265
204.655	2.54832
204.655	2.54319
204.601	2.5432
204.468	2.54144
204.406	2.54074
204.385	2.53382
204.318	2.54075
204.098	2.54867
204.098	2.54499
204.057	2.53988
203.85	2.54087
203.708	2.548
203.684	2.55285
203.576	2.55539
203.518	2.55667
203.503	2.56014
203.492	2.56202
203.22	2.56711
203.081	2.56966
203.062	2.58194
202.995	2.57503
202.975	2.57135
202.883	2.5738
202.667	2.57953
202.501	2.58552
202.471	2.59263
202.397	2.59749
202.316	2.59877
202.162	2.5953
202.147	2.60133
202.133	2.60825
202.072	2.59427
201.989	2.59225
201.964	2.58606
201.904	2.59353
201.634	2.60265
201.526	2.60556
201.487	2.61156
201.467	2.60401
201.377	2.6031
201.337	2.60278
201.317	2.59848
201.252	2.60406
201.037	2.60507
200.967	2.61169
200.927	2.60571
200.85	2.60824
200.523	2.61925
200.449	2.61746
200.236	2.6191
200.127	2.62005
199.667	2.64628
199.439	2.65953
199.314	2.67218
199.255	2.67907
198.875	2.70772
198.782	2.71849
198.48	2.74251
198.392	2.74846
198.287	2.76095
198.236	2.76674
198.065	2.78064
197.973	2.78787
197.778	2.81603
197.719	2.82975
197.65	2.83301
197.613	2.83481
197.285	2.87798
197.125	2.90159
196.695	2.95225
196.589	2.96053
196.454	2.9832
196.387	2.99454
196.319	2.99803
196.283	2.99991
195.82	3.06795
195.356	3.13599
195.124	3.17001
195.024	3.17506
194.971	3.17759
194.367	3.24085
194.321	3.24851
194.15	3.26425
193.996	3.27847
193.471	3.3396
193.21	3.37017
192.558	3.43414
192.517	3.44205
192.158	3.47233
192.129	3.47894
191.98	3.49298
191.905	3.49724
191.845	3.50929
191.812	3.5155
191.498	3.54011
191.373	3.54957
191.01	3.58591
190.768	3.6098
190.21	3.66095
189.621	3.71576
188.94	3.77541
188.623	3.80376
188.204	3.86206
187.993	3.89135
187.919	3.89577
187.894	3.90648
187.88	3.89798
187.806	3.89517
187.664	3.8927
187.596	3.89146
187.325	3.87134
187.147	3.85762
186.98	3.85441
186.748	3.85239
186.438	3.8682
186.286	3.8761
185.854	3.88575
185.709	3.89073
185.311	3.89525
185.113	3.8975
184.89	3.91278
184.867	3.91707
184.643	3.93425
184.524	3.94452
184.235	3.94461
184.093	3.94465
183.941	3.9385
183.869	3.93559
183.581	3.93388
183.44	3.9332
183.184	3.94804
183.059	3.95532
182.718	3.96057
180.263	3.94694
179.23	3.94609
179.077	3.94268
178.776	3.93585
178.367	3.93802
177.633	3.94406
177.562	3.94221
177.425	3.93878
176.825	3.93551
175.636	3.92897
175.371	3.92239
175.161	3.9134
174.969	3.90696
174.707	3.89656
174.575	3.88884
174.279	3.87563
173.935	3.86411
173.49	3.84853
173.251	3.8435
172.91	3.83331
172.77	3.82622
172.492	3.81238
172.229	3.80887
171.502	3.80611
171.333	3.80015
170.973	3.7893
170.72	3.78114
170.33	3.76877
170.168	3.75732
169.826	3.73372
169.715	3.73079
169.271	3.7273
169.112	3.7222
168.811	3.71457
168.567	3.70563
168.202	3.69371
167.967	3.68525
167.652	3.67441
167.563	3.6735
167.391	3.67167
167.351	3.67483
167.279	3.68114
167.261	3.6908
167.227	3.70977
167.171	3.72479
167.081	3.74127
167.005	3.7413
166.857	3.74135
166.809	3.73565
166.686	3.72286
166.642	3.72108
166.56	3.71787
166.299	3.71796
165.784	3.71814
165.659	3.71225
165.086	3.68443
164.952	3.68261
164.688	3.67923
164.62	3.67487
164.487	3.66641
164.261	3.64696
163.872	3.60909
163.794	3.60566
163.639	3.5988
163.531	3.59884
163.317	3.59892
163.045	3.59628
162.362	3.59141
162.186	3.58483
161.765	3.57057
161.542	3.56554
160.772	3.54107
160.69	3.53576
160.651	3.53325
160.129	3.51803
159.895	3.51404
159.624	3.51415
159.489	3.5142
159.205	3.51862
159.065	3.52065
158.815	3.53542
158.677	3.54061
158.597	3.53948
158.56	3.53909
158.22	3.52827
157.943	3.51983
157.552	3.51747
157.359	3.51629
157.137	3.49446
157.028	3.48372
156.722	3.46395
156.666	3.45776
156.467	3.44766
156.287	3.44093
156.11	3.44781
155.979	3.45552
155.679	3.48767
155.545	3.50506
155.471	3.5077
155.433	3.51243
155.433	3.5092
155.401	3.50638
155.336	3.50548
155.304	3.50516
155.259	3.50015
155.238	3.49764
155.122	3.49401
155.013	3.49113
154.62	3.49201
154.425	3.49263
154.066	3.50277
