Uv/Vis Spectrum: 1,4-cyclohexadiene-1,2-dicarboxylic acid dimethyl ester
Formula: C10H12O4
CAS: 14309-54-7
Boiling point: 162-163/10mm
Instrument: Zeiss RPQ 20 A/C
Origin: INSTITUTE OF ENERGY PROBLEMS OF CHEMICAL PHYSICS, RAS
Wavelength (nm)	Logarithm epsilon
219.816	3.348
220.816	3.338
221.816	3.328
222.816	3.32
223.816	3.312
224.816	3.306
225.816	3.3
226.816	3.295
227.816	3.29
228.816	3.286
229.816	3.283
230.816	3.279
231.816	3.276
232.816	3.272
233.816	3.268
234.816	3.263
235.816	3.258
236.816	3.252
237.816	3.246
238.816	3.238
239.816	3.229
240.816	3.219
241.816	3.208
242.816	3.196
243.816	3.182
244.816	3.168
245.816	3.151
246.816	3.134
247.816	3.116
248.816	3.097
249.816	3.077
250.816	3.057
251.816	3.037
252.707	3.018
253.707	2.999
254.707	2.978
255.707	2.957
256.707	2.936
257.707	2.914
258.707	2.891
259.707	2.868
260.707	2.844
261.707	2.82
262.707	2.795
263.707	2.77
264.707	2.744
265.707	2.718
266.707	2.691
267.707	2.663
268.707	2.634
269.707	2.605
270.707	2.576
271.707	2.546
272.707	2.515
273.707	2.483
274.669	2.453
275.669	2.419
276.669	2.387
277.669	2.355
278.669	2.321
279.669	2.287
280.669	2.25
281.669	2.213
282.669	2.174
283.669	2.134
284.669	2.094
285.669	2.052
286.669	2.006
