Uv/Vis Spectrum: N-(p-Aminobenzenesulfonyl)acetamide
Formula: C8H10N2O3S
CAS: 144-80-9
Melting point: 179-181
Instrument: Beckman DU
Origin: INSTITUTE OF ENERGY PROBLEMS OF CHEMICAL PHYSICS, RAS
Wavelength (nm)	Logarithm epsilon
207.29	4.113
208.82	4.103
210.34	4.096
211.7	4.082
213.06	4.065
214.41	4.052
215.26	4.028
216.45	4.007
217.29	3.98
218.14	3.953
218.99	3.926
219.5	3.899
220.18	3.871
220.68	3.844
221.19	3.817
221.7	3.79
222.04	3.759
222.55	3.732
222.89	3.702
223.23	3.671
223.4	3.64
223.74	3.61
224.08	3.579
224.25	3.549
224.58	3.518
224.92	3.487
225.09	3.457
225.43	3.426
225.77	3.396
226.11	3.365
226.45	3.334
226.79	3.304
227.3	3.277
227.64	3.246
227.98	3.215
228.48	3.185
228.99	3.154
229.67	3.127
231.2	3.117
232.55	3.134
233.57	3.154
234.59	3.178
235.27	3.205
235.94	3.232
236.62	3.26
237.13	3.29
237.81	3.317
238.32	3.348
238.83	3.375
239.5	3.402
240.01	3.43
240.69	3.457
241.37	3.484
241.88	3.511
242.56	3.538
243.06	3.569
243.91	3.596
244.42	3.623
245.1	3.651
245.78	3.678
246.29	3.705
247.13	3.732
247.64	3.759
248.49	3.786
249.34	3.814
250.02	3.841
250.86	3.865
251.71	3.892
252.56	3.919
253.41	3.946
254.42	3.97
255.27	3.997
256.29	4.018
257.14	4.045
258.15	4.065
259.17	4.089
260.19	4.113
261.38	4.13
262.56	4.15
263.92	4.164
265.28	4.177
266.8	4.188
268.33	4.198
269.85	4.198
271.38	4.198
272.9	4.191
274.43	4.181
275.96	4.177
277.31	4.16
278.84	4.15
280.2	4.133
281.55	4.116
282.74	4.099
283.93	4.082
285.11	4.062
286.13	4.041
287.15	4.018
288.16	3.997
289.01	3.97
290.03	3.946
290.88	3.922
291.72	3.899
292.57	3.875
293.25	3.848
294.1	3.824
294.78	3.797
295.45	3.769
296.13	3.742
296.64	3.715
297.49	3.688
298	3.661
298.34	3.63
299.18	3.603
299.69	3.576
300.2	3.549
300.71	3.518
301.22	3.487
301.73	3.46
302.24	3.433
302.58	3.402
303.08	3.375
303.59	3.345
303.93	3.314
304.44	3.287
304.78	3.256
305.12	3.226
305.46	3.195
305.97	3.168
306.31	3.137
306.64	3.107
306.98	3.076
307.32	3.045
307.66	3.015
308	2.984
308.34	2.954
308.68	2.923
308.85	2.893
309.19	2.862
309.36	2.831
309.7	2.801
309.87	2.77
310.04	2.74
310.37	2.709
310.54	2.678
310.88	2.648
311.05	2.617
311.39	2.587
311.56	2.556
311.9	2.525
312.24	2.495
312.41	2.464
312.75	2.434
312.92	2.403
313.26	2.372
313.43	2.342
313.77	2.311
313.94	2.281
314.27	2.25
314.61	2.219
314.78	2.189
315.12	2.158
315.29	2.128
315.46	2.097
315.8	2.067
316.14	2.036
316.48	2.005
316.65	1.975
316.99	1.944
317.16	1.914
317.33	1.883
317.67	1.852
318	1.822
318.34	1.791
318.51	1.761
318.68	1.73
319.02	1.699
