Uv/Vis Spectrum: Oxalic acid
Formula: C2H2O4
CAS: 144-62-7
Melting point: 189.5 dec
Boiling point: sub 157
Instrument: Quartz spectrograph
Origin: INSTITUTE OF ENERGY PROBLEMS OF CHEMICAL PHYSICS, RAS
Wavelength (nm)	Logarithm epsilon
217.43	2.868
218.69	2.802
219.96	2.713
221.25	2.639
222.55	2.559
223.83	2.481
225.2	2.388
226.55	2.278
227.88	2.195
229.3	2.102
230.68	2.015
232.11	1.948
233.37	1.903
234.82	1.862
236.47	1.832
238.91	1.8
240.83	1.785
242.54	1.777
245.69	1.771
247.3	1.766
248.93	1.76
250.45	1.752
252.25	1.738
253.94	1.727
255.66	1.711
256.97	1.699
258.65	1.681
260.95	1.65
262.58	1.624
264.49	1.589
266.47	1.529
268.36	1.485
270.28	1.424
272.23	1.369
274.2	1.314
276.21	1.248
277.97	1.185
280.11	1.106
282.39	1.027
284.52	0.95
286.68	0.884
287.04	0.873
287.4	0.867
287.77	0.856
288.13	0.845
288.5	0.84
288.87	0.829
