Uv/Vis Spectrum: 1-t-Butyl-3-ethylbenzene
Formula: C12H18
CAS: 14411-56-4
Melting point: 13
Boiling point: 137-138/ 759 mm
Instrument: unknown
Origin: INSTITUTE OF ENERGY PROBLEMS OF CHEMICAL PHYSICS, RAS
Wavelength (nm)	Logarithm epsilon
227.46	2.271
227.54	2.262
227.67	2.253
227.75	2.243
227.84	2.234
227.92	2.224
228.01	2.214
228.09	2.204
228.18	2.193
228.3	2.183
228.39	2.172
228.47	2.161
228.56	2.149
228.64	2.137
228.77	2.125
228.86	2.113
228.94	2.099
229.07	2.088
229.15	2.074
229.28	2.061
229.36	2.046
229.45	2.031
229.53	2.015
229.66	2.001
229.75	1.984
229.87	1.966
229.96	1.948
230.04	1.929
230.17	1.911
230.3	1.892
230.38	1.87
230.51	1.85
230.64	1.828
230.76	1.806
230.89	1.782
231.02	1.757
231.14	1.73
231.36	1.705
231.52	1.675
231.65	1.643
231.86	1.612
232.03	1.574
232.29	1.539
232.5	1.499
232.75	1.456
233.09	1.423
233.43	1.386
233.81	1.363
234.19	1.346
234.5	1.34
234.96	1.338
235.38	1.344
235.72	1.355
236.1	1.371
236.48	1.386
236.85	1.409
237.2	1.43
237.54	1.45
237.92	1.474
238.22	1.493
238.58	1.514
238.9	1.533
239.22	1.551
239.58	1.57
239.91	1.589
240.25	1.608
240.59	1.623
240.92	1.641
241.23	1.659
241.58	1.677
241.91	1.694
242.2	1.713
242.51	1.729
242.84	1.744
243.13	1.76
243.47	1.776
243.77	1.791
244.11	1.806
244.41	1.82
244.7	1.834
245.01	1.848
245.3	1.863
245.59	1.878
245.88	1.892
246.14	1.906
246.4	1.92
246.65	1.933
246.91	1.947
247.16	1.96
247.41	1.972
247.67	1.984
247.92	1.997
248.18	2.008
248.43	2.019
248.69	2.029
248.95	2.04
249.24	2.05
249.53	2.059
249.83	2.069
250.08	2.078
250.38	2.088
250.63	2.097
250.93	2.104
251.23	2.111
251.52	2.118
251.82	2.125
252.16	2.132
252.46	2.139
252.71	2.148
252.92	2.157
253.18	2.166
253.39	2.176
253.64	2.185
253.85	2.193
254.07	2.202
254.32	2.211
254.55	2.219
254.79	2.226
255.04	2.233
255.3	2.24
255.59	2.247
255.93	2.252
256.27	2.255
256.65	2.255
257.03	2.252
257.41	2.249
257.8	2.247
258.18	2.247
258.56	2.249
258.81	2.256
258.98	2.264
259.11	2.272
259.28	2.28
259.41	2.288
259.53	2.296
259.66	2.304
259.83	2.311
260	2.318
260.13	2.325
260.3	2.332
260.51	2.339
260.68	2.346
260.8	2.35
260.88	2.352
260.96	2.354
261.04	2.356
261.11	2.357
261.16	2.358
261.21	2.359
261.26	2.36
261.31	2.36
261.35	2.36
261.4	2.36
261.48	2.36
261.65	2.36
261.82	2.359
261.98	2.357
262.16	2.355
262.33	2.352
262.5	2.351
262.67	2.354
262.84	2.357
263.01	2.36
263.17	2.362
263.35	2.363
263.52	2.363
263.68	2.362
263.86	2.36
264.02	2.352
264.19	2.343
264.36	2.334
264.53	2.322
264.7	2.309
264.87	2.297
265.01	2.287
265.2	2.274
265.38	2.259
265.55	2.247
265.72	2.228
265.89	2.216
266.06	2.212
266.23	2.209
266.4	2.212
266.57	2.214
266.74	2.217
266.9	2.221
267.07	2.225
267.24	2.229
267.41	2.234
267.59	2.235
267.75	2.234
267.92	2.231
268.09	2.226
268.26	2.221
268.42	2.214
268.6	2.205
268.73	2.197
268.9	2.185
269.11	2.172
269.28	2.17
269.45	2.172
269.62	2.183
269.8	2.199
269.96	2.213
270.13	2.224
270.29	2.235
270.46	2.24
270.63	2.243
270.8	2.243
270.97	2.239
271.14	2.228
271.31	2.208
271.48	2.183
271.65	2.149
271.84	2.115
271.99	2.089
272.16	2.053
272.33	2.013
272.5	1.96
272.67	1.926
272.84	1.885
273.01	1.855
273.18	1.82
273.35	1.788
273.51	1.754
273.68	1.723
273.85	1.698
274.02	1.671
274.19	1.639
274.36	1.612
274.53	1.574
274.7	1.544
274.87	1.517
275.04	1.475
275.21	1.443
275.38	1.401
275.55	1.378
275.72	1.346
275.89	1.312
276.06	1.274
276.23	1.233
276.4	1.21
