Uv/Vis Spectrum: 2,2-dimethyl-3-phenyl-2H-azirine
Formula: C10H11N
CAS: 14491-02-2
Boiling point: 96/17 mm
Instrument: unknown
Origin: INSTITUTE OF ENERGY PROBLEMS OF CHEMICAL PHYSICS, RAS
Wavelength (nm)	Logarithm epsilon
213.234	3.99
214.234	3.95
215.234	3.915
216.234	3.887
217.234	3.867
218.234	3.854
219.234	3.85
220.234	3.852
221.234	3.86
222.234	3.873
223.234	3.89
224.234	3.908
225.234	3.928
226.234	3.948
227.234	3.969
228.234	3.989
229.234	4.008
230.234	4.027
231.234	4.047
232.122	4.064
233.122	4.084
234.122	4.103
235.122	4.122
236.122	4.139
237.122	4.154
238.122	4.168
239.122	4.179
240.122	4.187
241.122	4.194
242.122	4.198
243.122	4.2
244.122	4.2
245.122	4.198
246.122	4.194
247.122	4.188
248.122	4.179
249.122	4.17
250.122	4.158
251.009	4.146
252.009	4.131
253.009	4.111
254.009	4.087
255.009	4.062
256.009	4.034
257.009	4.004
258.009	3.972
259.009	3.938
260.009	3.901
261.009	3.861
262.009	3.819
263.009	3.774
264.009	3.727
264.062	3.725
265.062	3.669
266.062	3.613
267.062	3.555
268.062	3.495
269.062	3.433
270.062	3.373
271.062	3.321
272.062	3.286
273.062	3.27
274.062	3.273
274.921	3.278
275.811	3.254
276.811	3.23
277.811	3.243
278.623	3.271
279.308	3.285
280.131	3.258
280.593	3.198
281.646	3.157
282.646	3.133
283.646	3.126
284.646	3.136
285.646	3.15
286.646	3.147
287.556	3.101
288.556	3.022
289.556	2.953
290.556	2.893
291.556	2.841
292.556	2.794
293.556	2.749
294.556	2.701
295.556	2.644
296.556	2.573
297.556	2.48
298.556	2.355
299.556	2.175
300.556	1.891
