Uv/Vis Spectrum: 2,5-diphenylthiophene
Formula: C16H12S
CAS: 1445-78-9
Melting point: 153
Instrument: Beckman DK
Origin: INSTITUTE OF ENERGY PROBLEMS OF CHEMICAL PHYSICS, RAS
Wavelength (nm)	Logarithm epsilon
210.658	4.222
211.658	4.187
212.658	4.169
213.658	4.159
214.658	4.155
215.658	4.152
216.658	4.149
217.658	4.143
218.658	4.135
219.658	4.125
220.658	4.112
221.658	4.097
222.658	4.082
223.658	4.067
224.658	4.052
225.658	4.04
226.658	4.03
227.658	4.023
228.658	4.019
229.658	4.019
230.658	4.021
231.658	4.025
232.658	4.032
233.658	4.039
234.658	4.047
235.658	4.054
236.658	4.061
237.658	4.067
238.518	4.08
239.698	4.097
240.927	4.117
241.927	4.147
242.927	4.177
243.927	4.206
244.927	4.234
245.927	4.259
246.927	4.282
247.927	4.302
248.927	4.318
249.927	4.332
250.927	4.343
251.927	4.351
252.927	4.357
253.927	4.361
254.927	4.363
255.927	4.364
256.927	4.363
257.927	4.362
258.927	4.36
259.927	4.357
260.927	4.353
261.927	4.348
262.927	4.343
263.927	4.337
264.927	4.329
265.927	4.32
266.927	4.308
268.055	4.292
269.055	4.274
270.055	4.257
271.055	4.241
272.055	4.227
273.055	4.214
274.055	4.201
275.055	4.19
276.055	4.18
277.055	4.171
278.055	4.163
279.055	4.156
280.055	4.149
281.055	4.144
282.055	4.139
283.055	4.135
284.055	4.131
285.055	4.128
286.055	4.126
287.055	4.124
288.055	4.122
289.055	4.121
290.055	4.12
291.055	4.118
292.055	4.117
293.055	4.117
294.055	4.116
295.055	4.115
296.055	4.113
297.055	4.112
298.055	4.111
299.055	4.109
300.055	4.107
301.055	4.105
302.055	4.102
303.055	4.1
304.055	4.096
305.055	4.093
306.055	4.089
307.055	4.085
308.055	4.081
309.055	4.076
310.055	4.071
311.055	4.065
312.055	4.059
313.055	4.053
314.055	4.047
315.055	4.04
316.055	4.033
317.055	4.026
318.055	4.018
319.055	4.01
320.055	4.002
321.055	3.994
322.055	3.985
323.055	3.976
324.055	3.967
325.055	3.958
326.055	3.948
327.055	3.938
328.055	3.928
329.055	3.917
330.055	3.906
331.055	3.895
332.055	3.883
333.055	3.871
334.055	3.858
335.055	3.844
336.055	3.83
337.055	3.815
338.055	3.799
339.055	3.782
340.055	3.764
341.055	3.744
342.055	3.724
343.055	3.701
344.055	3.678
345.055	3.652
346.055	3.625
347.055	3.595
348.055	3.563
349.055	3.529
350.055	3.492
351.055	3.452
352.055	3.409
353.055	3.362
354.055	3.312
355.055	3.258
356.055	3.201
357.055	3.138
358.055	3.072
359.055	3
360.055	2.923
361.055	2.841
