Uv/Vis Spectrum: 2-Butylthiophene
Formula: C8H12S
CAS: 1455-20-5
Boiling point: 181.5
Instrument: ISP-22
Origin: INSTITUTE OF ENERGY PROBLEMS OF CHEMICAL PHYSICS, RAS
Wavelength (nm)	Logarithm epsilon
223.23	3
224.39	2.808
224.54	2.803
224.68	2.792
224.83	2.781
224.98	2.77
225.12	2.764
225.27	2.737
225.7	2.671
226.14	2.627
226.58	2.578
227.01	2.529
227.45	2.474
227.88	2.419
228.32	2.375
228.76	2.342
229.19	2.299
229.63	2.271
230.06	2.238
230.5	2.2
230.94	2.167
231.37	2.14
231.81	2.162
232.25	2.184
232.68	2.189
233.12	2.189
233.55	2.189
233.99	2.173
234.43	2.162
234.86	2.151
235.3	2.14
235.74	2.134
236.17	2.123
236.61	2.112
237.04	2.107
237.48	2.101
237.92	2.096
238.35	2.09
238.79	2.09
239.22	2.09
239.66	2.09
240.1	2.09
240.53	2.101
240.97	2.107
241.41	2.112
241.84	2.118
242.28	2.123
242.71	2.134
243.15	2.134
243.59	2.145
244.02	2.145
244.46	2.14
244.89	2.134
245.33	2.14
245.77	2.14
246.2	2.14
246.64	2.145
247.08	2.145
247.51	2.145
247.95	2.145
248.38	2.145
248.82	2.14
249.26	2.14
249.69	2.14
250.13	2.14
250.57	2.134
251	2.129
251.44	2.123
251.87	2.118
252.31	2.118
252.75	2.118
253.18	2.112
253.62	2.101
254.05	2.096
254.49	2.101
254.93	2.101
255.36	2.101
255.8	2.101
256.24	2.101
256.67	2.096
257.11	2.101
257.54	2.096
257.98	2.096
258.42	2.096
258.85	2.096
259.29	2.09
259.73	2.09
260.16	2.09
260.6	2.085
261.03	2.085
261.47	2.085
261.91	2.085
262.34	2.079
262.78	2.074
263.21	2.068
263.65	2.063
264.09	2.063
264.52	2.058
264.96	2.058
265.4	2.052
265.83	2.047
266.27	2.041
266.7	2.036
267.14	2.03
267.58	2.025
268.01	2.025
268.45	2.014
268.89	2.008
269.32	2.008
269.76	1.992
270.19	1.986
270.63	1.981
271.07	1.975
271.5	1.959
271.94	1.953
272.37	1.948
272.81	1.932
273.25	1.926
273.68	1.915
274.12	1.904
274.56	1.899
274.99	1.882
275.43	1.877
275.86	1.86
276.3	1.849
276.74	1.838
277.17	1.827
277.61	1.811
278.05	1.8
278.48	1.789
278.92	1.778
279.35	1.773
279.79	1.767
280.23	1.756
280.66	1.74
281.1	1.723
281.53	1.701
281.97	1.69
282.41	1.668
282.84	1.647
283.28	1.63
283.72	1.608
284.15	1.592
284.59	1.575
285.02	1.553
285.46	1.532
285.9	1.51
286.33	1.488
286.77	1.466
287.21	1.444
287.64	1.422
288.08	1.395
288.51	1.373
288.95	1.34
289.39	1.312
289.82	1.279
290.26	1.252
