Uv/Vis Spectrum: Disilane, 1,2-diethenyl-1,1,2,2-tetramethyl-
Formula: C8H18Si2
CAS: 1450-29-9
Instrument: SP-41
Origin: INSTITUTE OF ENERGY PROBLEMS OF CHEMICAL PHYSICS, RAS
Wavelength (nm)	Logarithm epsilon
182.19	4.397
182.61	4.389
183.11	4.38
183.61	4.366
184.11	4.358
184.53	4.349
184.95	4.34
185.28	4.329
186.03	4.315
186.53	4.306
186.95	4.296
187.45	4.285
188.01	4.273
188.63	4.26
189.39	4.241
190.04	4.226
190.46	4.213
190.96	4.2
191.46	4.187
191.96	4.175
192.46	4.161
193.05	4.149
194.05	4.12
194.55	4.107
194.97	4.09
195.47	4.075
196.5	4.045
197.39	4.019
197.97	4.002
198.64	3.987
200.23	3.949
200.9	3.932
201.57	3.918
202.23	3.899
203.09	3.878
203.8	3.861
204.47	3.848
205.18	3.832
205.99	3.817
206.66	3.803
207.83	3.789
208.58	3.783
209.33	3.779
210.04	3.776
210.83	3.776
212.01	3.776
213.01	3.784
213.74	3.792
214.4	3.799
215.18	3.808
216.68	3.839
217.35	3.852
218.02	3.868
219	3.887
220.44	3.918
221.26	3.933
221.86	3.942
222.53	3.955
224.36	3.981
225.03	3.99
225.7	4.002
226.45	4.011
227.2	4.014
228.79	4.017
229.54	4.017
230.29	4.017
231.04	4.014
231.71	4.002
233.05	3.981
233.72	3.971
234.47	3.962
235.14	3.949
235.8	3.932
236.97	3.895
237.64	3.876
238.31	3.856
238.89	3.83
240.31	3.764
240.98	3.738
241.57	3.704
242.15	3.674
242.86	3.634
243.9	3.559
244.47	3.512
245.16	3.458
245.74	3.403
246.41	3.333
247.49	3.233
248.16	3.178
