Uv/Vis Spectrum: Tetradecylbenzene
Formula: C20H34
CAS: 1459-10-5
Melting point: 16
Boiling point: 359
Instrument: unknown
Origin: INSTITUTE OF ENERGY PROBLEMS OF CHEMICAL PHYSICS, RAS
Wavelength (nm)	Logarithm epsilon
247.65	2.17
247.69	2.171
247.72	2.172
247.76	2.174
247.79	2.174
247.83	2.175
247.86	2.176
247.9	2.177
247.93	2.177
247.97	2.179
248	2.18
248.18	2.183
248.35	2.189
248.53	2.194
248.71	2.2
248.88	2.202
249.06	2.207
249.23	2.21
249.41	2.213
249.59	2.217
249.76	2.218
249.94	2.221
250.11	2.222
250.29	2.223
250.46	2.223
250.64	2.224
250.82	2.226
250.99	2.228
251.17	2.229
251.34	2.233
251.52	2.238
251.69	2.243
251.87	2.252
252.05	2.259
252.22	2.266
252.4	2.273
252.57	2.28
252.75	2.287
252.93	2.292
253.1	2.299
253.28	2.304
253.45	2.308
253.63	2.311
253.8	2.313
253.98	2.315
254.16	2.315
254.33	2.313
254.51	2.312
254.68	2.309
254.86	2.307
255.04	2.306
255.21	2.306
255.39	2.308
255.56	2.312
255.74	2.317
255.91	2.322
256.09	2.329
256.27	2.335
256.44	2.341
256.62	2.348
256.79	2.356
256.97	2.362
257.14	2.369
257.32	2.375
257.5	2.38
257.67	2.382
257.85	2.385
258.02	2.386
258.2	2.387
258.38	2.387
258.55	2.386
258.73	2.386
258.9	2.383
259.08	2.382
259.25	2.379
259.43	2.376
259.61	2.374
259.78	2.371
259.96	2.369
260.13	2.367
260.31	2.364
260.49	2.364
260.66	2.364
260.84	2.365
261.01	2.368
261.19	2.372
261.36	2.379
261.54	2.386
261.72	2.393
261.89	2.398
262.07	2.402
262.24	2.407
262.42	2.409
262.59	2.412
262.77	2.415
262.95	2.417
263.12	2.421
263.3	2.424
263.47	2.428
263.65	2.433
263.83	2.44
264	2.443
264.18	2.443
264.35	2.442
264.53	2.433
264.7	2.422
264.88	2.412
265.06	2.4
265.23	2.387
265.41	2.375
265.58	2.361
265.76	2.348
265.94	2.333
266.11	2.319
266.29	2.308
266.46	2.303
266.64	2.301
266.81	2.301
266.99	2.306
267.17	2.314
267.24	2.318
267.3	2.321
267.38	2.323
267.44	2.325
267.52	2.326
267.57	2.326
267.61	2.325
267.68	2.323
267.76	2.32
267.87	2.313
267.97	2.308
268.08	2.301
268.19	2.291
268.29	2.282
268.4	2.272
268.5	2.26
268.61	2.247
268.71	2.237
268.82	2.226
268.92	2.216
269.03	2.207
269.08	2.207
269.14	2.208
269.24	2.217
269.35	2.229
269.45	2.244
269.56	2.258
269.66	2.271
269.77	2.283
269.87	2.295
269.98	2.305
270.05	2.309
270.15	2.313
270.23	2.315
270.35	2.316
270.49	2.317
270.66	2.315
270.75	2.312
270.84	2.309
270.93	2.306
271.03	2.298
271.14	2.286
271.24	2.264
271.35	2.248
271.46	2.227
271.56	2.209
271.67	2.194
271.77	2.172
271.88	2.142
271.98	2.127
272.09	2.106
272.19	2.083
272.3	2.061
272.41	2.038
272.51	2.019
272.62	2.001
272.72	1.983
272.83	1.965
272.93	1.944
272.99	1.932
273.14	1.914
273.25	1.907
273.35	1.898
273.46	1.889
273.57	1.879
273.67	1.869
273.78	1.862
273.88	1.854
273.99	1.849
274.09	1.841
274.2	1.833
274.3	1.824
274.43	1.815
274.51	1.808
274.62	1.799
274.71	1.791
274.83	1.784
274.93	1.779
275.02	1.774
275.11	1.767
275.21	1.761
275.32	1.754
275.42	1.748
275.57	1.739
275.68	1.736
