Uv/Vis Spectrum: 1,2,4-Tri-tert-butylbenzene
Formula: C18H30
CAS: 1459-11-6
Melting point: 103-104
Instrument: Perkin-Elmer Model 21
Origin: INSTITUTE OF ENERGY PROBLEMS OF CHEMICAL PHYSICS, RAS
Wavelength (nm)	Logarithm epsilon
195.03	4.588
195.16	4.588
195.29	4.589
195.41	4.589
195.79	4.603
196.17	4.623
196.54	4.635
196.92	4.647
197.3	4.66
197.68	4.666
198.05	4.67
198.43	4.67
198.81	4.67
199.19	4.668
199.56	4.665
199.94	4.662
200.32	4.651
200.7	4.644
201.07	4.624
201.45	4.602
201.83	4.582
202.21	4.555
202.59	4.535
202.96	4.506
203.34	4.475
203.72	4.466
204.1	4.449
204.47	4.408
204.85	4.374
205.23	4.333
205.61	4.297
205.98	4.265
206.36	4.242
206.74	4.216
207.12	4.189
207.49	4.167
207.87	4.152
208.25	4.129
208.63	4.113
209	4.097
209.38	4.083
209.76	4.07
210.14	4.057
210.51	4.047
210.89	4.041
211.27	4.033
211.65	4.025
212.02	4.017
212.4	4.015
212.78	4.013
213.16	4.013
213.53	4.006
213.91	4.006
214.29	4.008
214.67	4.008
215.04	4.008
215.42	4.01
215.8	4.013
216.18	4.013
216.55	4.015
216.93	4.017
217.31	4.017
217.69	4.017
218.06	4.015
218.44	4.015
218.82	4.01
219.2	4.008
219.57	4.004
219.95	4.002
220.33	3.997
220.71	3.995
221.09	3.988
221.46	3.984
221.84	3.975
222.22	3.965
222.6	3.961
222.97	3.948
223.35	3.938
223.73	3.923
224.11	3.907
224.48	3.89
224.86	3.873
225.24	3.858
225.62	3.843
225.99	3.82
226.37	3.8
226.75	3.778
227.13	3.76
227.5	3.736
227.88	3.707
228.26	3.68
228.64	3.662
229.01	3.632
229.39	3.589
230.4	3.535
230.9	3.481
231.28	3.419
231.91	3.356
232.41	3.271
233.17	3.194
233.8	3.083
234.68	2.981
235.56	2.848
236.69	2.743
237.7	2.605
