Uv/Vis Spectrum: 6-amino-3-methyl-3H-dibenz[f,ij]isoquinoline-2,7-dione
Formula: C17H12N2O2
CAS: 14642-72-9
Melting point: 304-306
Instrument: SF-4A
Origin: INSTITUTE OF ENERGY PROBLEMS OF CHEMICAL PHYSICS, RAS
Wavelength (nm)	Logarithm epsilon
261.454	4.908
262.454	4.88
263.454	4.85
264.454	4.816
265.454	4.782
266.454	4.747
267.454	4.712
268.454	4.678
269.454	4.646
270.454	4.616
271.454	4.587
272.454	4.561
273.454	4.538
274.454	4.518
275.454	4.5
276.454	4.485
277.454	4.473
278.454	4.463
279.454	4.456
280.454	4.452
281.454	4.449
282.454	4.449
283.454	4.45
284.454	4.453
285.454	4.457
286.454	4.462
287.454	4.467
288.454	4.474
289.454	4.48
290.454	4.487
291.454	4.493
292.454	4.499
293.454	4.505
294.454	4.51
295.454	4.514
296.454	4.517
297.454	4.518
298.454	4.519
299.454	4.518
300.454	4.516
301.454	4.513
302.454	4.509
303.454	4.503
304.454	4.497
305.454	4.489
306.454	4.48
307.454	4.471
308.454	4.461
309.454	4.451
310.454	4.44
311.454	4.429
312.454	4.419
313.454	4.409
314.454	4.399
315.454	4.39
316.454	4.382
317.454	4.375
318.454	4.369
319.454	4.364
320.892	4.358
321.892	4.352
322.892	4.351
323.892	4.354
324.892	4.36
325.892	4.369
326.892	4.38
327.892	4.391
328.892	4.404
329.892	4.417
330.892	4.43
331.892	4.443
332.892	4.455
333.892	4.467
334.892	4.477
335.892	4.486
336.892	4.494
337.892	4.501
338.892	4.507
339.892	4.512
340.892	4.515
341.892	4.517
342.892	4.519
343.892	4.52
344.892	4.52
345.892	4.52
346.892	4.519
347.892	4.519
348.892	4.518
349.892	4.518
350.892	4.518
351.892	4.519
352.892	4.52
353.892	4.522
354.892	4.525
355.892	4.528
356.892	4.532
357.892	4.536
358.892	4.539
359.892	4.543
360.892	4.545
361.892	4.546
362.892	4.544
363.892	4.539
364.892	4.53
365.892	4.515
366.967	4.488
367.998	4.448
368.772	4.394
369.22	4.342
370.22	4.167
370.699	4.06
371.22	3.941
371.786	3.843
372.422	3.736
373.196	3.615
373.905	3.516
375.117	3.43
376.117	3.403
377.117	3.379
378.117	3.358
379.117	3.339
380.117	3.322
381.117	3.309
382.117	3.297
383.117	3.287
384.117	3.28
385.117	3.275
386.117	3.271
387.117	3.269
388.117	3.269
389.117	3.271
390.117	3.274
391.117	3.278
392.117	3.284
393.117	3.291
394.117	3.299
395.117	3.308
396.117	3.318
397.117	3.329
398.117	3.341
399.117	3.353
400.117	3.367
401.117	3.381
402.117	3.395
403.117	3.41
404.117	3.426
405.117	3.442
406.117	3.458
407.117	3.474
408.117	3.491
409.117	3.508
410.117	3.525
411.117	3.543
412.117	3.56
413.117	3.577
414.117	3.595
415.117	3.612
416.117	3.629
417.117	3.647
418.117	3.664
419.117	3.681
420.117	3.698
421.117	3.714
422.117	3.731
423.117	3.747
424.117	3.763
425.117	3.779
426.117	3.795
427.117	3.81
428.117	3.825
429.117	3.84
430.117	3.855
431.117	3.869
432.117	3.884
433.117	3.898
434.117	3.912
435.167	3.927
436.134	3.94
437.134	3.951
438.134	3.964
439.134	3.978
440.134	3.993
441.134	4.008
442.134	4.024
443.134	4.04
444.134	4.055
445.134	4.071
446.134	4.086
447.134	4.102
448.134	4.117
449.134	4.131
450.134	4.145
451.134	4.159
452.134	4.172
453.134	4.185
454.134	4.198
455.134	4.21
456.134	4.222
457.134	4.233
458.134	4.244
459.134	4.255
460.134	4.266
461.134	4.276
462.134	4.286
463.134	4.296
464.134	4.306
465.134	4.316
466.134	4.326
467.134	4.336
468.134	4.346
469.134	4.356
470.134	4.365
471.134	4.375
472.134	4.385
473.134	4.395
474.134	4.404
475.134	4.414
476.134	4.423
477.134	4.432
478.134	4.441
479.134	4.449
480.134	4.457
481.134	4.465
482.134	4.472
483.134	4.478
484.134	4.483
485.134	4.487
486.134	4.49
487.134	4.492
488.134	4.492
489.134	4.491
490.134	4.488
491.134	4.483
492.134	4.476
493.134	4.466
494.134	4.454
495.134	4.439
496.134	4.422
497.134	4.4
497.92	4.388
498.836	4.374
499.836	4.357
500.836	4.345
501.836	4.337
502.836	4.335
503.836	4.336
504.836	4.341
505.836	4.348
506.836	4.358
507.836	4.37
508.836	4.382
509.836	4.396
510.836	4.409
511.836	4.422
512.836	4.433
513.836	4.443
514.836	4.451
515.836	4.457
516.836	4.46
517.836	4.46
518.836	4.457
519.836	4.451
520.836	4.442
521.836	4.43
522.836	4.415
523.836	4.397
524.836	4.378
525.836	4.356
526.803	4.333
527.803	4.311
528.803	4.289
529.803	4.267
530.803	4.244
531.803	4.219
532.803	4.193
533.803	4.165
534.803	4.134
535.803	4.1
536.803	4.063
537.803	4.022
538.803	3.977
539.803	3.926
540.803	3.871
542.003	3.807
543.003	3.75
544.003	3.692
545.003	3.633
546.003	3.573
547.003	3.513
548.003	3.453
549.003	3.392
550.003	3.332
551.003	3.273
552.003	3.214
553.003	3.157
554.003	3.102
555.003	3.048
556.003	2.997
557.003	2.948
558.003	2.903
559.003	2.861
559.959	2.826
560.959	2.799
561.959	2.775
562.959	2.753
563.959	2.732
564.959	2.713
565.959	2.695
566.959	2.679
567.959	2.663
568.959	2.649
569.959	2.635
570.959	2.622
571.959	2.61
572.959	2.599
573.959	2.587
574.959	2.577
575.959	2.566
576.959	2.556
577.959	2.547
578.959	2.537
579.959	2.528
580.959	2.518
581.959	2.509
582.959	2.501
583.959	2.492
584.959	2.484
585.959	2.475
586.959	2.467
587.959	2.459
588.959	2.451
589.959	2.444
590.959	2.436
591.959	2.429
592.959	2.422
593.959	2.415
594.959	2.408
