Uv/Vis Spectrum: 2-Hydroxy-5-methylbenzophenone
Formula: C14H12O2
CAS: 1470-57-1
Melting point: 84
Instrument: Unicam SP 500
Origin: INSTITUTE OF ENERGY PROBLEMS OF CHEMICAL PHYSICS, RAS
Wavelength (nm)	Logarithm epsilon
212.99	4.107
214.34	4.097
215.86	4.091
217.38	4.094
218.9	4.097
220.42	4.094
221.77	4.084
222.95	4.064
223.96	4.04
224.8	4.016
225.48	3.989
225.98	3.963
226.83	3.936
227.67	3.912
228.52	3.888
229.53	3.865
230.54	3.845
231.72	3.828
233.07	3.818
234.42	3.804
235.94	3.804
237.46	3.808
238.81	3.818
240.16	3.835
241.51	3.851
242.86	3.865
244.21	3.878
245.56	3.888
246.91	3.902
248.26	3.919
249.61	3.932
250.96	3.942
252.31	3.952
253.66	3.966
255.01	3.976
256.52	3.983
257.87	3.993
259.39	3.996
260.91	4
262.43	4
263.95	4
265.47	3.996
266.99	3.993
268.5	3.983
270.02	3.973
271.37	3.963
272.72	3.946
273.9	3.929
275.08	3.909
276.1	3.885
277.11	3.865
277.95	3.841
278.8	3.818
279.64	3.794
280.32	3.767
281.16	3.74
281.67	3.713
282.34	3.686
282.85	3.659
283.35	3.632
283.86	3.605
284.36	3.578
284.87	3.548
285.38	3.518
285.71	3.488
286.05	3.457
286.56	3.43
286.9	3.4
287.4	3.373
287.74	3.343
288.25	3.316
288.58	3.285
288.92	3.255
289.43	3.228
289.76	3.198
290.27	3.171
290.61	3.141
291.11	3.114
291.62	3.083
291.96	3.053
292.46	3.026
292.97	2.996
293.31	2.965
293.81	2.938
294.32	2.912
294.66	2.881
295.16	2.854
295.67	2.827
296.18	2.797
296.68	2.767
297.19	2.74
297.86	2.713
298.71	2.686
299.89	2.666
301.24	2.652
302.76	2.652
304.11	2.662
305.62	2.672
306.81	2.693
307.65	2.716
308.66	2.74
309.34	2.767
310.18	2.794
310.86	2.821
311.53	2.848
312.37	2.874
312.88	2.901
313.72	2.928
314.57	2.955
315.41	2.982
316.09	3.009
316.76	3.036
317.6	3.06
318.45	3.083
319.29	3.107
320.14	3.13
320.98	3.157
321.99	3.178
323	3.201
323.85	3.225
324.86	3.245
325.87	3.265
327.05	3.285
328.07	3.306
329.25	3.326
330.43	3.346
331.61	3.363
332.79	3.38
333.97	3.397
335.32	3.413
336.67	3.427
338.02	3.44
339.37	3.454
340.72	3.467
342.07	3.481
343.42	3.491
344.77	3.504
346.29	3.514
347.81	3.521
349.33	3.525
350.84	3.528
352.36	3.525
353.88	3.525
355.4	3.521
356.92	3.514
358.27	3.504
359.79	3.494
361.31	3.484
362.66	3.467
364.01	3.454
365.36	3.444
366.54	3.427
367.89	3.41
369.07	3.393
370.08	3.373
371.09	3.353
372.27	3.333
373.29	3.312
374.13	3.289
375.14	3.265
376.15	3.242
377.17	3.221
378.01	3.198
379.02	3.174
380.03	3.151
380.88	3.127
381.72	3.104
382.73	3.08
383.58	3.056
384.59	3.033
385.27	3.006
386.11	2.982
386.95	2.955
387.8	2.928
388.47	2.901
389.48	2.878
390.33	2.851
391.17	2.824
392.01	2.797
392.86	2.773
393.53	2.746
394.38	2.723
395.05	2.696
395.9	2.672
396.4	2.645
397.08	2.618
397.75	2.592
398.43	2.565
399.27	2.538
399.78	2.511
400.62	2.484
401.29	2.457
401.97	2.43
402.64	2.403
403.32	2.376
403.99	2.349
404.67	2.322
405.34	2.295
405.85	2.268
406.53	2.241
407.2	2.214
407.71	2.187
408.38	2.16
409.06	2.133
409.56	2.106
410.24	2.08
410.74	2.053
411.25	2.026
411.92	1.999
412.43	1.972
412.77	1.941
413.44	1.914
413.95	1.888
414.46	1.861
414.96	1.834
415.64	1.807
416.14	1.776
416.65	1.749
417.16	1.722
417.66	1.696
418.17	1.669
418.67	1.642
419.18	1.611
