Uv/Vis Spectrum: Benzaldehyde, 2-hydroxy-3-methoxy-
Formula: C8H8O3
CAS: 148-53-8
Melting point: 44-45
Instrument: Beckman DU
Origin: INSTITUTE OF ENERGY PROBLEMS OF CHEMICAL PHYSICS, RAS
Wavelength (nm)	Logarithm epsilon
201.52	3.956
201.69	3.959
201.86	3.959
202.03	3.963
202.2	3.963
202.37	3.966
202.54	3.966
202.71	3.966
202.88	3.97
203.04	3.97
203.21	3.973
203.38	3.973
203.55	3.973
203.72	3.977
203.89	3.977
204.06	3.98
204.23	3.98
204.74	3.987
205.92	4.007
207.1	4.035
208.29	4.062
209.47	4.086
210.66	4.116
211.84	4.137
213.02	4.161
214.21	4.181
215.39	4.195
216.58	4.205
217.76	4.219
218.94	4.226
220.13	4.226
221.31	4.222
222.5	4.209
223.68	4.185
224.86	4.161
226.05	4.13
227.23	4.096
228.42	4.052
229.6	4.004
230.78	3.946
231.97	3.871
233.15	3.785
234.34	3.71
235.52	3.629
236.7	3.557
237.89	3.485
239.07	3.437
240.26	3.403
241.44	3.39
242.62	3.393
243.81	3.407
244.99	3.431
246.18	3.468
247.36	3.513
248.54	3.56
249.73	3.608
250.91	3.659
252.1	3.71
253.28	3.748
254.46	3.789
255.65	3.826
256.83	3.857
258.02	3.881
259.2	3.912
260.38	3.939
261.57	3.959
262.75	3.977
263.94	3.99
265.12	3.997
266.3	3.997
267.49	3.994
268.67	3.987
269.86	3.973
271.04	3.959
272.23	3.939
273.41	3.905
274.59	3.874
275.78	3.826
276.96	3.789
278.15	3.741
279.33	3.683
280.51	3.635
281.7	3.543
282.88	3.448
284.07	3.359
285.25	3.284
286.43	3.199
287.62	3.127
288.8	3.052
289.99	2.984
291.17	2.926
292.35	2.864
293.54	2.83
294.72	2.803
295.91	2.782
297.09	2.769
298.27	2.759
299.46	2.755
300.64	2.765
301.83	2.772
303.01	2.789
304.19	2.803
305.38	2.823
306.56	2.851
307.75	2.875
308.93	2.898
310.11	2.922
311.3	2.946
312.48	2.974
313.67	2.994
314.85	3.014
316.03	3.038
317.22	3.059
318.4	3.079
319.59	3.1
320.77	3.12
321.95	3.141
323.14	3.158
324.32	3.175
325.51	3.195
326.69	3.209
327.87	3.226
329.06	3.243
330.24	3.257
331.43	3.267
332.61	3.277
333.79	3.294
334.98	3.304
336.16	3.311
337.35	3.321
338.53	3.328
339.71	3.339
340.9	3.342
342.08	3.352
343.27	3.356
344.45	3.359
345.63	3.359
346.82	3.359
348	3.359
349.19	3.359
350.37	3.359
351.55	3.359
352.74	3.352
353.92	3.342
355.11	3.335
356.29	3.325
357.47	3.318
358.66	3.304
359.84	3.291
361.03	3.284
362.21	3.27
363.39	3.253
364.58	3.24
365.76	3.226
366.95	3.212
368.13	3.188
369.31	3.168
370.5	3.151
371.68	3.13
372.87	3.11
374.05	3.083
375.23	3.062
376.42	3.038
377.6	3.014
378.79	2.987
379.97	2.96
381.15	2.929
382.34	2.902
383.52	2.861
384.71	2.83
385.89	2.796
387.07	2.762
388.26	2.728
389.44	2.694
390.63	2.66
391.81	2.629
392.99	2.595
394.18	2.564
395.36	2.53
396.55	2.503
397.73	2.472
398.91	2.441
400.1	2.411
401.28	2.38
402.47	2.349
403.65	2.322
404.84	2.291
406.02	2.26
407.2	2.237
408.39	2.202
409.57	2.172
410.76	2.141
411.94	2.117
413.12	2.083
414.31	2.059
415.49	2.032
416.68	2.001
417.86	1.974
419.04	1.943
420.23	1.919
421.41	1.889
422.6	1.861
423.78	1.837
424.96	1.807
426.15	1.783
427.33	1.749
428.52	1.715
429.7	1.681
430.88	1.646
432.07	1.599
433.25	1.544
434.44	1.493
435.58	1.448
436.63	1.412
437.99	1.373
