Uv/Vis Spectrum: 9-Methylcarbazole
Formula: C13H11N
CAS: 1484-12-4
Melting point: 89.34
Boiling point: 195(12)
Instrument: Beckman DU
Origin: INSTITUTE OF ENERGY PROBLEMS OF CHEMICAL PHYSICS, RAS
Wavelength (nm)	Logarithm epsilon
217.744	4.36195
218.698	4.3794
219.612	4.39551
220.486	4.41041
221.323	4.42422
222.122	4.43704
222.885	4.44896
223.613	4.46005
224.306	4.47038
224.967	4.48002
225.596	4.48901
226.193	4.4974
226.761	4.50524
227.299	4.51257
227.81	4.51941
228.293	4.52581
228.75	4.53179
229.183	4.53738
229.592	4.5426
229.978	4.54749
230.342	4.55205
230.685	4.55632
231.008	4.5603
231.312	4.56403
231.599	4.56751
231.869	4.57077
232.123	4.57381
232.363	4.57665
232.589	4.57931
232.802	4.5818
233.003	4.58414
233.194	4.58633
233.375	4.58839
233.548	4.59033
233.713	4.59216
233.871	4.5939
234.024	4.59556
234.172	4.59714
234.317	4.59866
234.459	4.60012
234.601	4.60155
234.741	4.60294
234.882	4.60431
235.025	4.60568
235.17	4.60704
235.319	4.60841
235.473	4.6098
235.632	4.61121
235.632	4.61121
236.115	4.61121
236.359	4.61279
236.363	4.61393
236.366	4.61501
236.37	4.61607
236.611	4.6112
237.134	4.61119
237.134	4.61119
237.258	4.60701
237.383	4.6028
237.508	4.59855
237.635	4.59425
237.762	4.58991
237.891	4.58553
238.021	4.58111
238.152	4.57664
238.284	4.57212
238.417	4.56756
238.552	4.56295
238.688	4.5583
238.825	4.55359
238.964	4.54883
239.105	4.54402
239.247	4.53916
239.391	4.53424
239.537	4.52927
239.684	4.52424
239.834	4.51915
239.985	4.514
240.138	4.50879
240.293	4.50352
240.451	4.49819
240.61	4.49278
240.772	4.48731
240.935	4.48177
241.101	4.47616
241.27	4.47048
241.441	4.46472
241.614	4.45888
241.79	4.45297
241.969	4.44697
242.15	4.44089
242.334	4.43472
242.52	4.42847
242.71	4.42212
242.902	4.41568
243.097	4.40914
243.296	4.4025
243.497	4.39576
243.701	4.38891
243.909	4.38195
244.119	4.37487
244.333	4.36768
244.551	4.36037
244.772	4.35293
244.996	4.34536
245.223	4.33766
245.455	4.32981
245.689	4.32182
245.928	4.31369
246.17	4.30539
246.416	4.29693
246.666	4.2883
246.92	4.2795
247.177	4.27051
247.439	4.26133
247.705	4.25195
247.975	4.24236
248.249	4.23255
248.527	4.22252
248.81	4.21224
249.097	4.20172
249.388	4.19093
249.684	4.17986
249.984	4.1685
250.289	4.15683
250.599	4.14484
250.913	4.1325
251.232	4.1198
251.556	4.10672
251.556	4.10672
251.873	4.10573
252.216	4.10455
252.573	4.10327
252.573	4.10327
253.054	4.10806
253.506	4.11524
253.928	4.12445
254.324	4.13528
254.696	4.14739
255.044	4.16041
255.371	4.17403
255.679	4.18795
255.97	4.20191
256.244	4.21569
256.505	4.22909
256.754	4.24192
256.993	4.25404
257.223	4.26529
257.447	4.27557
257.665	4.28474
257.881	4.2927
258.096	4.29933
258.311	4.30452
258.311	4.30452
258.951	4.30948
259.736	4.31314
261.339	4.31866
261.339	4.31866
261.431	4.31673
261.527	4.31429
261.629	4.31134
261.736	4.30788
261.847	4.30391
261.964	4.29942
262.087	4.29441
262.215	4.28886
262.349	4.28277
262.49	4.27611
262.636	4.26889
262.789	4.26107
262.949	4.25264
263.115	4.24358
263.289	4.23385
263.47	4.22343
263.658	4.21228
263.853	4.20036
264.057	4.18764
264.268	4.17404
264.488	4.15953
264.715	4.14402
264.952	4.12744
265.197	4.1097
265.45	4.09069
265.713	4.07029
265.985	4.04836
266.267	4.02471
266.558	3.99913
266.859	3.97138
267.169	3.94113
267.49	3.90799
267.822	3.87144
267.822	3.87144
268.484	3.84447
269.134	3.81655
269.877	3.78749
270.821	3.75703
272.072	3.72485
273.737	3.69057
273.737	3.69057
274.642	3.69483
275.561	3.69904
276.506	3.70322
276.506	3.70322
277.219	3.73908
277.873	3.77167
278.482	3.80152
279.065	3.82905
279.638	3.85459
280.219	3.87841
280.824	3.90075
281.47	3.92178
282.174	3.94166
282.953	3.96054
283.825	3.97851
284.805	3.99569
285.912	4.01216
287.162	4.02799
287.162	4.02799
287.769	4.04471
288.316	4.06083
288.809	4.07639
289.254	4.09141
289.657	4.10593
290.024	4.11996
290.362	4.13353
290.676	4.14666
290.973	4.15937
291.257	4.17167
291.537	4.18358
291.817	4.19512
292.104	4.20629
292.104	4.20629
292.526	4.20761
292.948	4.20893
293.686	4.20855
294.029	4.20678
294.384	4.20485
294.384	4.20485
294.458	4.19414
294.522	4.18311
294.578	4.17173
294.626	4.16
294.669	4.14789
294.708	4.13539
294.743	4.12246
294.776	4.1091
294.808	4.09528
294.841	4.08096
294.875	4.06612
294.911	4.05072
294.952	4.03474
294.998	4.01811
295.051	4.00081
295.111	3.98277
295.18	3.96394
295.26	3.94426
295.35	3.92364
295.453	3.90201
295.57	3.87926
295.702	3.85527
295.851	3.82991
296.016	3.80302
296.201	3.77442
296.405	3.74386
296.63	3.71108
296.878	3.67573
297.149	3.63736
297.446	3.59542
297.768	3.54917
298.117	3.49763
298.495	3.43941
298.903	3.3725
299.341	3.2938
299.341	3.2938
300.808	3.24046
302.391	3.20307
304.071	3.18359
305.829	3.18166
307.644	3.19465
309.497	3.21861
311.37	3.24931
313.241	3.283
315.092	3.31674
316.903	3.34833
318.654	3.37618
320.326	3.39905
320.326	3.39905
323.256	3.4487
325.196	3.48413
327.808	3.53497
327.808	3.53497
330.156	3.52212
331.886	3.49981
333.318	3.47203
334.771	3.44364
336.562	3.42086
339.011	3.4111
339.011	3.4111
340.338	3.4916
341.378	3.53435
343.021	3.58141
343.021	3.58141
343.503	3.58132
344	3.58123
344.522	3.58114
344.522	3.58114
345.275	3.5393
345.881	3.48907
346.406	3.42927
346.92	3.35814
347.488	3.2731
348.18	3.17008
349.062	3.04234
350.203	2.87729
