Uv/Vis Spectrum: Cyclobutene, 1-methyl-
Formula: C5H8
CAS: 1489-60-7
Boiling point: 37.1/ 750 mm
Instrument: n.i.g.
Origin: INSTITUTE OF ENERGY PROBLEMS OF CHEMICAL PHYSICS, RAS
Wavelength (nm)	Logarithm epsilon
156.98	3.871
157.08	3.863
157.25	3.849
157.38	3.843
157.52	3.849
157.76	3.876
157.93	3.904
158.07	3.92
158.17	3.917
158.28	3.909
158.48	3.904
158.62	3.915
158.76	3.926
158.88	3.934
159.03	3.941
159.18	3.948
159.32	3.948
159.46	3.942
159.6	3.937
159.74	3.931
159.88	3.926
160.01	3.921
160.13	3.916
160.3	3.909
160.43	3.907
160.58	3.904
160.73	3.901
160.84	3.9
161.01	3.898
161.15	3.898
161.29	3.901
161.44	3.904
161.58	3.909
161.73	3.92
161.9	3.934
162.04	3.944
162.16	3.948
162.3	3.95
162.45	3.948
162.6	3.942
162.75	3.934
162.9	3.923
163.03	3.909
163.18	3.898
163.33	3.893
163.47	3.898
163.62	3.909
163.77	3.926
163.88	3.935
164.03	3.945
164.21	3.953
164.38	3.955
164.5	3.955
164.66	3.953
164.81	3.948
164.96	3.942
165.09	3.945
165.26	3.953
165.36	3.96
165.48	3.966
165.6	3.972
165.72	3.977
165.84	3.982
165.93	3.986
166.02	3.988
166.17	3.986
166.35	3.977
166.46	3.969
166.6	3.957
166.78	3.942
166.93	3.931
167.08	3.92
167.24	3.915
167.39	3.914
167.54	3.913
167.71	3.913
167.86	3.915
168.01	3.92
168.17	3.937
168.32	3.953
168.47	3.967
168.63	3.975
168.78	3.975
168.95	3.97
169.17	3.96
169.31	3.953
169.47	3.946
169.58	3.942
169.74	3.939
169.85	3.937
170	3.935
170.12	3.934
170.3	3.932
170.42	3.932
170.57	3.935
170.69	3.941
170.85	3.951
171.01	3.963
171.18	3.975
171.31	3.985
171.47	3.997
171.64	4.01
171.78	4.023
171.91	4.033
172.02	4.041
172.12	4.046
172.2	4.048
172.31	4.047
172.47	4.041
172.65	4.033
172.81	4.025
172.98	4.015
173.14	4.008
173.27	4.004
173.42	4.002
173.57	4
173.78	3.998
173.96	3.997
174.14	3.998
174.31	4
174.48	4.004
174.63	4.011
174.82	4.021
174.97	4.03
175.12	4.041
175.28	4.052
175.38	4.06
175.53	4.069
175.74	4.081
175.95	4.091
176.19	4.1
176.33	4.102
176.45	4.098
176.55	4.093
176.67	4.085
176.84	4.069
177.02	4.052
177.19	4.036
177.36	4.021
177.53	4.008
177.71	3.997
177.88	3.986
178.05	3.977
178.23	3.97
178.38	3.967
178.58	3.964
178.79	3.963
178.94	3.961
179.12	3.96
179.29	3.959
179.48	3.957
179.63	3.955
179.82	3.953
180	3.953
180.19	3.956
180.36	3.959
180.58	3.963
180.71	3.964
180.9	3.964
181.07	3.959
181.26	3.953
181.41	3.948
181.56	3.942
181.8	3.936
181.98	3.931
182.18	3.928
182.35	3.926
182.53	3.926
182.75	3.928
182.9	3.931
183.08	3.937
183.27	3.941
183.46	3.944
183.64	3.944
183.82	3.942
184.01	3.937
184.18	3.93
184.38	3.921
184.57	3.915
184.76	3.909
184.95	3.904
185.19	3.897
185.37	3.892
185.51	3.887
185.69	3.882
185.81	3.879
185.96	3.876
186.2	3.871
186.47	3.867
186.66	3.865
186.82	3.866
187.06	3.869
187.23	3.876
187.43	3.887
187.66	3.907
187.81	3.92
188	3.935
188.2	3.942
188.4	3.942
188.59	3.937
188.79	3.928
188.96	3.92
189.14	3.913
189.38	3.901
189.58	3.893
189.8	3.886
189.97	3.88
190.16	3.875
190.36	3.872
190.57	3.871
190.78	3.868
190.99	3.867
191.19	3.864
191.38	3.86
191.55	3.852
191.78	3.843
191.98	3.838
192.19	3.835
192.41	3.836
192.65	3.84
192.8	3.843
193	3.849
193.21	3.854
193.31	3.858
193.41	3.86
193.51	3.858
193.62	3.854
193.83	3.847
194.03	3.838
194.24	3.827
194.45	3.816
194.67	3.802
194.87	3.788
195.08	3.777
195.29	3.766
195.52	3.751
195.71	3.733
195.92	3.711
196.13	3.689
196.34	3.662
196.55	3.64
196.77	3.629
196.98	3.607
197.19	3.579
197.41	3.557
197.62	3.535
197.79	3.523
198.05	3.513
198.27	3.513
198.5	3.515
198.7	3.508
198.92	3.496
199.14	3.48
199.36	3.458
199.58	3.436
199.8	3.403
200.02	3.37
200.24	3.332
200.46	3.299
200.68	3.277
200.9	3.249
201.05	3.232
201.3	3.207
201.5	3.183
201.79	3.15
202.02	3.128
202.24	3.112
202.47	3.089
202.69	3.067
202.87	3.053
203.07	3.04
203.37	3.018
203.6	3.001
203.83	2.985
204.06	2.968
204.28	2.956
204.48	2.948
204.7	2.94
204.95	2.933
205.16	2.927
205.45	2.919
205.68	2.913
205.91	2.908
206.13	2.906
206.38	2.902
206.61	2.902
206.85	2.902
207.08	2.902
207.32	2.902
207.56	2.902
207.8	2.902
208.03	2.902
208.27	2.905
208.51	2.908
208.75	2.913
208.96	2.919
209.22	2.918
209.47	2.916
209.71	2.914
209.96	2.908
210.2	2.902
210.44	2.891
210.69	2.88
210.9	2.866
211.18	2.842
211.42	2.809
211.67	2.781
211.92	2.754
212.16	2.732
212.41	2.715
212.66	2.699
212.87	2.687
213.16	2.677
213.41	2.671
213.66	2.666
213.93	2.661
214.16	2.655
214.42	2.649
214.67	2.644
214.93	2.638
215.18	2.633
215.43	2.627
215.69	2.622
215.94	2.615
216.2	2.605
216.46	2.594
216.72	2.583
216.98	2.572
217.27	2.558
217.5	2.545
217.76	2.528
218.02	2.517
218.26	2.505
218.55	2.495
218.81	2.484
219.07	2.468
219.31	2.459
219.6	2.451
219.87	2.446
220.13	2.44
220.4	2.435
220.67	2.429
220.94	2.426
221.21	2.424
221.52	2.421
221.79	2.417
222.02	2.412
222.27	2.406
222.58	2.394
222.83	2.38
223.11	2.363
223.38	2.341
223.66	2.319
223.93	2.292
224.21	2.27
224.36	2.255
224.64	2.226
225.04	2.182
225.24	2.161
225.56	2.119
225.88	2.077
226.11	2.05
226.4	2.01
226.63	1.982
226.76	1.969
226.87	1.956
