Uv/Vis Spectrum: 8- Hydroxyquinoline
Formula: C9H7NO
CAS: 148-24-3
Melting point: 74
Instrument: SF-4
Origin: INSTITUTE OF ENERGY PROBLEMS OF CHEMICAL PHYSICS, RAS
Wavelength (nm)	Logarithm epsilon
206.44	4.219
207.12	4.192
207.96	4.165
208.81	4.138
209.66	4.111
210.68	4.087
211.86	4.067
213.05	4.05
214.4	4.036
215.76	4.023
217.28	4.013
218.81	4.009
220.33	4.013
221.86	4.019
223.22	4.033
224.4	4.053
225.25	4.077
226.1	4.1
226.94	4.128
227.62	4.155
228.13	4.182
228.64	4.212
229.15	4.239
229.82	4.266
230.16	4.297
230.84	4.324
231.52	4.351
231.86	4.381
232.37	4.408
233.04	4.435
233.55	4.466
234.23	4.493
235.25	4.513
236.43	4.533
237.62	4.55
238.97	4.56
240.5	4.55
241.35	4.527
242.19	4.503
242.87	4.476
243.55	4.449
244.06	4.418
244.57	4.391
244.91	4.361
245.24	4.33
245.41	4.3
245.92	4.273
246.09	4.243
246.43	4.212
246.94	4.185
247.11	4.155
247.45	4.124
247.62	4.094
247.96	4.063
248.46	4.036
248.63	4.006
249.14	3.979
249.48	3.948
249.65	3.918
249.99	3.887
250.33	3.857
253.04	3.614
253.55	3.586
254.06	3.559
254.39	3.529
255.07	3.502
255.92	3.475
256.77	3.448
257.61	3.421
258.97	3.404
260.49	3.404
261.85	3.414
263.21	3.428
264.56	3.441
266.09	3.451
267.61	3.458
269.14	3.458
270.66	3.458
272.02	3.448
273.03	3.424
274.39	3.414
275.41	3.39
276.42	3.367
277.61	3.346
278.8	3.329
280.32	3.319
281.85	3.319
283.37	3.323
284.73	3.336
286.25	3.346
287.78	3.357
289.13	3.367
290.66	3.373
292.01	3.384
293.54	3.39
295.06	3.397
296.42	3.407
297.94	3.414
299.47	3.417
300.99	3.424
302.52	3.428
304.04	3.431
305.57	3.434
307.09	3.434
308.62	3.434
310.14	3.431
311.67	3.428
313.2	3.421
314.72	3.414
316.25	3.404
317.6	3.394
318.96	3.38
320.31	3.367
321.67	3.35
322.85	3.333
324.21	3.316
325.4	3.299
326.58	3.279
327.77	3.262
328.95	3.242
329.97	3.221
330.99	3.198
332	3.177
333.02	3.154
334.04	3.13
334.89	3.106
335.73	3.083
336.58	3.059
337.43	3.032
338.27	3.005
338.78	2.978
339.46	2.951
340.31	2.927
340.82	2.897
341.32	2.87
342	2.842
342.85	2.815
343.36	2.785
344.04	2.758
344.71	2.731
345.39	2.704
345.9	2.677
346.58	2.65
347.26	2.623
348.1	2.596
348.61	2.565
349.12	2.538
349.97	2.511
350.47	2.484
350.98	2.457
351.66	2.43
352.51	2.403
353.02	2.372
353.53	2.345
354.37	2.318
355.05	2.291
355.56	2.261
356.24	2.234
356.91	2.207
357.42	2.176
358.44	2.153
358.95	2.126
359.63	2.099
360.3	2.071
361.15	2.048
362	2.021
362.68	1.994
363.52	1.967
364.03	1.94
364.88	1.916
365.73	1.889
366.57	1.865
367.42	1.842
368.27	1.818
369.28	1.794
370.47	1.774
371.49	1.754
373.01	1.743
374.54	1.733
376.06	1.733
377.59	1.733
379.11	1.733
380.64	1.733
382.16	1.737
383.69	1.737
385.21	1.737
386.74	1.74
388.26	1.74
389.79	1.74
391.31	1.74
392.84	1.743
394.36	1.743
395.89	1.747
397.41	1.747
398.94	1.75
400.46	1.75
401.99	1.754
403.51	1.76
405.04	1.764
406.56	1.767
408.09	1.774
409.61	1.777
411.14	1.784
412.66	1.787
414.19	1.791
415.71	1.794
417.24	1.798
418.76	1.801
420.29	1.801
421.81	1.804
423.34	1.804
424.87	1.808
426.39	1.811
427.92	1.811
429.44	1.811
430.97	1.811
432.49	1.808
434.02	1.808
435.54	1.804
437.07	1.804
438.59	1.801
440.12	1.801
441.64	1.798
443.17	1.794
444.69	1.791
446.22	1.784
447.74	1.781
449.27	1.774
450.79	1.767
452.32	1.76
453.84	1.754
455.37	1.743
456.89	1.737
458.42	1.727
459.77	1.716
461.3	1.706
462.65	1.693
464.01	1.679
465.36	1.669
466.72	1.652
468.08	1.639
469.43	1.625
470.79	1.608
472.14	1.591
473.5	1.578
474.85	1.561
476.21	1.544
477.57	1.534
478.75	1.513
480.11	1.5
481.29	1.483
482.65	1.466
484	1.449
485.19	1.429
486.55	1.415
487.73	1.395
488.92	1.378
490.1	1.358
491.46	1.341
492.65	1.321
493.83	1.304
495.02	1.284
496.21	1.267
497.22	1.246
498.58	1.229
499.59	1.209
500.78	1.189
501.97	1.169
503.15	1.148
504.34	1.131
505.52	1.111
506.71	1.094
507.73	1.074
508.74	1.054
509.93	1.037
511.12	1.016
512.3	0.996
513.49	0.979
514.51	0.959
515.86	0.942
516.88	0.922
518.23	0.905
519.25	0.885
520.61	0.868
521.79	0.847
522.98	0.83
524.16	0.81
525.52	0.793
526.71	0.773
528.06	0.756
529.25	0.736
530.6	0.719
531.79	0.702
532.98	0.685
534.33	0.671
535.52	0.655
536.87	0.644
538.23	0.627
539.59	0.617
540.94	0.604
542.3	0.59
543.65	0.58
545.01	0.57
546.36	0.556
547.89	0.546
