Uv/Vis Spectrum: Benzene,(chloroethynyl)-
Formula: C8H5Cl
CAS: 1483-82-5
Instrument: Beckman DK-2
Origin: INSTITUTE OF ENERGY PROBLEMS OF CHEMICAL PHYSICS, RAS
Wavelength (nm)	Logarithm epsilon
228.22	3.828
228.27	3.828
228.31	3.829
228.35	3.829
228.4	3.829
228.44	3.83
228.49	3.831
228.53	3.831
228.58	3.832
228.62	3.832
228.66	3.833
228.75	3.833
228.93	3.836
229.11	3.838
229.29	3.84
229.46	3.842
229.64	3.845
229.82	3.847
229.99	3.85
230.17	3.853
230.35	3.855
230.53	3.858
230.7	3.861
230.88	3.864
231.06	3.866
231.24	3.869
231.41	3.871
231.59	3.874
231.77	3.877
231.94	3.879
232.12	3.882
232.3	3.885
232.48	3.887
232.65	3.89
232.83	3.893
233.01	3.896
233.19	3.899
233.36	3.902
233.54	3.905
233.72	3.908
233.9	3.912
234.07	3.916
234.25	3.92
234.43	3.923
234.6	3.927
234.78	3.93
234.96	3.933
235.14	3.937
235.31	3.94
235.49	3.944
235.67	3.946
235.85	3.95
236.02	3.954
236.2	3.957
236.38	3.961
236.55	3.967
236.73	3.974
236.91	3.98
237.09	3.987
237.26	3.993
237.44	3.997
237.62	4.002
237.8	4.006
237.97	4.01
238.15	4.015
238.33	4.021
238.5	4.024
238.68	4.027
238.86	4.029
239.04	4.03
239.21	4.031
239.39	4.032
239.57	4.031
239.75	4.03
239.92	4.028
240.1	4.026
240.28	4.024
240.46	4.021
240.63	4.018
240.81	4.016
240.99	4.013
241.16	4.01
241.34	4.005
241.52	4.002
241.7	3.998
241.87	3.995
242.05	3.993
242.23	3.99
242.41	3.986
242.58	3.983
242.76	3.98
242.94	3.978
243.11	3.976
243.29	3.974
243.47	3.971
243.65	3.969
243.82	3.967
244	3.965
244.18	3.964
244.36	3.962
244.53	3.961
244.71	3.959
244.89	3.958
245.06	3.958
245.24	3.956
245.42	3.954
245.6	3.953
245.77	3.951
245.95	3.95
246.13	3.948
246.31	3.947
246.48	3.946
246.66	3.945
246.84	3.943
247.02	3.942
247.19	3.942
247.37	3.941
247.55	3.94
247.72	3.94
247.9	3.94
248.08	3.942
248.26	3.944
248.43	3.947
248.61	3.95
248.79	3.954
248.97	3.961
249.14	3.966
249.32	3.97
249.5	3.977
249.67	3.982
249.85	3.987
250.03	3.992
250.21	3.997
250.38	4.002
250.56	4.005
250.74	4.005
250.92	4.005
251.09	4.003
251.27	3.998
251.45	3.993
251.62	3.989
251.8	3.982
251.98	3.974
252.16	3.966
252.33	3.956
252.51	3.946
252.69	3.934
252.87	3.914
253.04	3.894
253.22	3.878
253.4	3.859
253.58	3.843
253.75	3.829
253.93	3.805
254.11	3.778
254.28	3.751
254.46	3.721
254.64	3.699
254.82	3.673
254.99	3.656
255.17	3.638
255.35	3.614
255.53	3.595
255.7	3.575
255.88	3.545
256.06	3.524
256.23	3.493
256.41	3.462
256.59	3.439
256.77	3.417
256.94	3.404
257.12	3.386
257.3	3.372
257.48	3.358
257.65	3.342
257.83	3.321
258.01	3.308
258.18	3.291
258.36	3.27
258.54	3.257
258.72	3.243
258.89	3.229
259.07	3.212
259.25	3.196
259.43	3.181
259.6	3.164
259.78	3.147
259.96	3.132
260.14	3.117
260.31	3.105
260.49	3.092
260.67	3.078
260.84	3.065
261.02	3.05
261.2	3.039
261.38	3.032
261.55	3.024
261.73	3.013
261.91	3.005
262.09	2.997
262.26	2.992
262.44	2.984
262.62	2.971
262.79	2.967
262.97	2.954
263.15	2.949
263.33	2.949
263.5	2.944
263.68	2.93
263.86	2.925
264.04	2.921
264.21	2.911
264.39	2.901
264.57	2.896
264.74	2.88
264.92	2.869
265.1	2.852
265.28	2.846
265.45	2.841
265.63	2.829
265.81	2.823
265.99	2.823
266.16	2.823
266.34	2.817
266.52	2.817
