Uv/Vis Spectrum: Diphenylphosphinic chloride
Formula: C12H10ClOP
CAS: 1499-21-4
Instrument: Specord UV-VIS
Origin: INSTITUTE OF ENERGY PROBLEMS OF CHEMICAL PHYSICS, RAS
Wavelength (nm)	Logarithm epsilon
212.24	4.238
212.33	4.237
212.43	4.236
212.52	4.234
212.61	4.234
212.7	4.233
212.79	4.232
212.88	4.231
212.97	4.23
213.07	4.229
213.16	4.228
213.25	4.227
213.34	4.226
213.61	4.221
214.53	4.206
214.98	4.199
215.44	4.192
216.36	4.178
216.81	4.173
217.27	4.168
217.73	4.164
218.18	4.163
219.55	4.159
220.01	4.158
220.47	4.158
220.92	4.158
221.38	4.159
221.84	4.162
223.21	4.166
223.66	4.169
224.12	4.17
224.58	4.174
225.95	4.186
226.41	4.189
226.86	4.194
227.32	4.198
227.78	4.203
228.69	4.213
229.15	4.217
229.6	4.221
230.06	4.224
230.52	4.226
230.97	4.228
232.34	4.23
232.8	4.227
233.26	4.225
233.72	4.221
234.63	4.209
235.09	4.202
235.54	4.194
236.46	4.176
236.91	4.162
237.37	4.153
237.83	4.132
238.28	4.11
239.2	4.074
239.65	4.055
240.11	4.027
240.57	4.007
241.02	3.988
241.48	3.953
241.94	3.926
242.85	3.888
243.31	3.852
244.22	3.778
244.68	3.743
245.14	3.683
245.59	3.648
246.05	3.61
246.96	3.514
247.42	3.466
248.33	3.339
248.79	3.273
249.25	3.206
250.62	3.013
250.95	2.98
251.53	2.936
251.88	2.919
252.16	2.904
252.9	2.881
253.59	2.878
254.27	2.881
254.85	2.889
255.18	2.899
255.64	2.918
256.1	2.936
256.61	2.947
257.54	2.954
258.36	2.959
258.84	2.968
259.3	2.984
260.01	3.009
260.67	3.041
261.11	3.065
261.58	3.091
262.04	3.103
262.5	3.103
262.75	3.083
262.95	3.027
263.03	2.949
263.19	2.846
263.25	2.79
263.41	2.747
263.58	2.719
263.87	2.691
264.13	2.726
264.32	2.772
264.62	2.871
264.84	2.959
265.06	3.03
265.24	3.079
