Uv/Vis Spectrum: 2-Mercaptobenzothiazole
Formula: C7H5NS2
CAS: 149-30-4
Melting point: 181
Instrument: n.i.g.
Origin: INSTITUTE OF ENERGY PROBLEMS OF CHEMICAL PHYSICS, RAS
Wavelength (nm)	Logarithm epsilon
216.9	4.064
217.14	4.065
217.38	4.067
217.62	4.068
217.86	4.07
218.1	4.071
218.33	4.072
218.57	4.073
218.81	4.073
219.29	4.077
219.76	4.082
220.24	4.087
220.71	4.092
221.19	4.097
221.67	4.102
222.14	4.108
222.62	4.113
223.1	4.12
223.57	4.126
224.05	4.133
224.52	4.14
225	4.149
225.48	4.155
225.95	4.16
226.43	4.166
226.9	4.171
227.38	4.173
227.86	4.176
228.33	4.179
228.81	4.181
229.29	4.184
229.76	4.186
230.24	4.186
230.71	4.188
231.19	4.188
231.67	4.188
232.14	4.19
232.62	4.191
233.1	4.191
233.57	4.19
234.05	4.19
234.52	4.189
235	4.189
235.48	4.187
235.95	4.186
236.43	4.184
236.9	4.182
237.38	4.179
237.86	4.176
238.33	4.174
238.81	4.168
239.29	4.16
239.76	4.153
240.24	4.144
240.71	4.134
241.19	4.125
241.67	4.113
242.14	4.094
242.62	4.081
243.1	4.071
243.57	4.06
244.02	4.049
244.44	4.038
244.94	4.024
245.48	4.007
245.95	3.994
246.43	3.979
246.9	3.967
247.38	3.949
247.86	3.935
248.33	3.919
248.81	3.903
249.29	3.888
249.76	3.861
250.24	3.845
250.71	3.831
251.19	3.809
251.67	3.789
252.14	3.772
252.62	3.752
253.1	3.732
253.57	3.709
254.05	3.688
254.52	3.665
255	3.643
255.48	3.618
255.95	3.593
256.43	3.568
256.9	3.541
257.38	3.521
257.86	3.491
258.33	3.462
258.81	3.443
259.29	3.431
259.76	3.419
260.24	3.41
260.71	3.402
261.19	3.398
261.67	3.393
262.14	3.393
262.62	3.393
263.1	3.393
263.57	3.398
264.05	3.398
264.52	3.402
265	3.402
265.48	3.406
265.95	3.41
266.43	3.415
266.9	3.419
267.38	3.423
267.86	3.427
268.33	3.431
268.81	3.435
269.29	3.439
269.76	3.447
270.24	3.451
270.71	3.454
271.19	3.462
271.67	3.466
272.14	3.473
272.62	3.48
273.1	3.487
273.57	3.494
274.05	3.501
274.52	3.505
275	3.515
275.48	3.521
275.95	3.528
276.43	3.534
276.9	3.544
277.38	3.55
277.86	3.556
278.33	3.565
278.81	3.571
279.29	3.579
279.76	3.585
280.24	3.591
280.71	3.599
281.19	3.604
281.67	3.612
282.14	3.62
282.62	3.628
283.1	3.636
283.57	3.643
284.05	3.648
284.52	3.658
285	3.667
285.48	3.674
285.95	3.681
286.43	3.69
286.9	3.696
287.38	3.705
287.86	3.714
288.33	3.724
288.81	3.732
289.29	3.738
289.76	3.748
290.24	3.756
290.71	3.765
291.19	3.778
291.67	3.789
292.14	3.804
292.62	3.821
293.1	3.848
293.57	3.875
294.05	3.886
294.52	3.93
295	3.954
295.48	3.98
295.95	4.004
296.43	4.026
296.9	4.041
297.38	4.057
297.97	4.089
298.33	4.103
298.81	4.121
299.29	4.136
299.76	4.155
300.24	4.169
300.71	4.186
301.19	4.201
301.67	4.22
302.14	4.233
302.62	4.243
303.1	4.252
303.57	4.265
304.05	4.279
304.52	4.294
305	4.304
305.44	4.317
305.95	4.33
306.43	4.34
306.9	4.35
307.38	4.355
307.86	4.364
308.33	4.374
308.81	4.381
309.29	4.388
309.76	4.393
310.24	4.399
310.71	4.405
311.19	4.41
311.67	4.415
312.14	4.42
312.62	4.423
313.1	4.428
313.57	4.43
314.05	4.434
314.52	4.437
315	4.439
315.48	4.439
315.95	4.44
316.43	4.44
316.9	4.44
317.38	4.439
317.86	4.439
318.33	4.438
318.81	4.436
319.29	4.431
319.76	4.425
320.24	4.418
320.71	4.408
321.19	4.401
321.67	4.389
322.14	4.378
322.62	4.361
323.1	4.337
323.57	4.313
324.05	4.296
324.52	4.277
325	4.249
325.48	4.217
325.95	4.188
326.43	4.152
326.9	4.112
327.38	4.068
327.86	4.027
328.33	3.989
328.81	3.947
329.29	3.904
329.76	3.831
330.24	3.769
330.71	3.724
331.19	3.69
331.67	3.658
332.14	3.62
332.62	3.593
333.1	3.565
333.57	3.537
334.05	3.508
334.52	3.487
335	3.462
335.48	3.435
335.95	3.41
336.43	3.38
