Uv/Vis Spectrum: Pyrene, decafluoro-
Formula: C16F10
CAS: 1493-68-1
Melting point: 224.0-225.0
Instrument: SFD-2
Origin: INSTITUTE OF ENERGY PROBLEMS OF CHEMICAL PHYSICS, RAS
Wavelength (nm)	Logarithm epsilon
218.33	4.044
218.83	4.049
219.32	4.054
219.82	4.064
220.32	4.068
221.31	4.107
222.3	4.127
223.29	4.176
224.28	4.22
225.27	4.278
226.26	4.317
227.25	4.366
228.24	4.454
229.23	4.512
230.23	4.532
231.22	4.546
232.21	4.566
233.2	4.581
234.19	4.59
235.18	4.605
236.17	4.62
237.16	4.688
238.15	4.712
239.14	4.742
240.14	4.761
241.13	4.751
242.12	4.634
243.11	4.478
244.1	4.39
245.09	4.312
246.08	4.239
247.07	4.21
248.06	4.186
249.05	4.161
250.05	4.142
251.04	4.132
252.03	4.122
253.02	4.122
254.01	4.127
255	4.161
255.99	4.195
256.98	4.234
257.97	4.278
258.96	4.307
259.95	4.327
260.95	4.337
261.94	4.332
262.93	4.283
263.92	4.273
264.91	4.264
265.9	4.264
266.89	4.278
267.88	4.312
268.87	4.332
269.86	4.361
270.86	4.444
271.85	4.507
272.84	4.546
273.83	4.4
274.82	4.156
275.81	4.034
276.8	3.83
277.79	3.673
278.78	3.571
279.77	3.493
280.77	3.469
281.76	3.459
282.75	3.449
283.74	3.444
284.73	3.449
285.72	3.464
286.71	3.473
287.7	3.493
288.69	3.522
289.68	3.532
290.68	3.556
291.67	3.571
292.66	3.571
293.65	3.576
294.64	3.581
295.63	3.591
296.62	3.615
297.61	3.639
298.6	3.688
299.59	3.722
300.59	3.786
301.58	3.878
302.57	3.917
303.56	3.956
304.55	3.961
305.54	3.947
306.53	3.908
307.52	3.893
308.51	3.893
309.5	3.903
310.5	3.912
311.49	3.956
312.48	4
313.47	4.049
314.46	4.093
315.45	4.112
316.44	4.176
317.43	4.278
318.42	4.332
319.41	4.337
320.41	4.293
321.4	4.249
322.39	4.225
323.38	4.156
324.37	4.137
325.36	4.117
326.35	4.112
327.34	4.127
328.33	4.215
329.32	4.303
330.32	4.332
331.31	4.395
332.3	4.459
333.29	4.507
334.28	4.546
335.27	4.546
336.26	4.464
337.25	4.371
338.24	4.19
339.23	4.064
340.23	3.986
341.22	3.903
342.21	3.844
343.2	3.795
344.19	3.751
345.18	3.669
346.17	3.425
347.16	3.308
348.15	3.269
349.14	3.249
350.14	3.225
351.13	3.195
352.12	3.171
353.11	3.127
354.1	3.098
355.09	3.108
356.08	3.127
357.07	3.181
358.06	3.21
359.05	3.239
360.05	3.269
361.04	3.298
362.03	3.303
363.02	3.293
364.01	3.274
365	3.244
365.99	3.2
366.98	3.156
367.97	3.044
368.96	3.025
369.95	2.971
370.95	2.952
371.94	2.952
372.93	2.952
373.92	2.976
374.91	3
375.9	3.049
376.89	3.064
377.88	3.127
378.87	3.22
379.86	3.259
380.86	3.283
381.85	3.303
382.84	3.308
383.83	3.298
384.82	3.274
385.81	3.083
386.8	3.015
387.79	2.932
388.78	2.815
