Uv/Vis Spectrum: 3-Buten-2-one, 4-(2,6,6-trimethyl-1-cyclohexen-1-yl)-
Formula: C13H20O
CAS: 14901-07-6
Boiling point: 140/ 18 mm
Instrument: Zeiss PMQ II
Origin: INSTITUTE OF ENERGY PROBLEMS OF CHEMICAL PHYSICS, RAS
Wavelength (nm)	Logarithm epsilon
186.93	3.995
187.6	3.995
188.29	3.993
188.97	3.991
189.67	3.991
190.37	3.988
191.07	3.988
191.78	3.988
192.49	3.986
193.21	3.986
193.93	3.984
194.66	3.978
195.4	3.976
196.14	3.976
196.88	3.969
197.64	3.965
198.31	3.956
199.07	3.952
199.84	3.948
200.62	3.946
201.4	3.939
202.18	3.933
202.89	3.927
203.69	3.92
204.4	3.912
205.12	3.905
205.94	3.903
206.76	3.901
207.59	3.897
208.43	3.899
209.27	3.899
210.12	3.897
210.98	3.895
211.84	3.895
212.71	3.899
213.59	3.901
214.48	3.901
215.37	3.901
216.27	3.895
217.18	3.888
217.99	3.88
218.91	3.877
219.74	3.869
220.57	3.86
221.41	3.85
222.25	3.841
222.89	3.828
223.53	3.816
224.07	3.801
224.83	3.788
225.48	3.775
226.03	3.76
226.69	3.745
227.35	3.732
227.91	3.715
228.36	3.698
228.81	3.681
229.14	3.662
229.48	3.645
230.16	3.63
230.73	3.615
231.31	3.6
231.65	3.583
232	3.566
232.46	3.549
232.93	3.532
233.51	3.515
234.1	3.5
234.69	3.483
235.16	3.466
235.76	3.451
236.35	3.436
236.96	3.419
237.32	3.402
238.05	3.387
238.66	3.372
239.52	3.359
240.5	3.348
241.5	3.338
242.51	3.327
243.65	3.321
244.8	3.327
245.84	3.335
246.75	3.346
247.67	3.359
248.46	3.372
249.26	3.387
250.06	3.399
250.87	3.414
251.55	3.429
252.23	3.444
252.78	3.461
253.46	3.478
254.02	3.495
254.43	3.513
255.13	3.53
255.69	3.547
256.25	3.564
256.96	3.581
257.67	3.598
258.39	3.615
259.11	3.63
259.83	3.647
260.55	3.664
261.29	3.679
262.02	3.696
262.76	3.711
263.5	3.728
264.25	3.743
265	3.76
265.91	3.775
266.52	3.792
267.44	3.807
268.05	3.824
268.83	3.841
269.76	3.856
270.55	3.873
271.65	3.886
272.76	3.899
273.89	3.912
275.02	3.924
276.16	3.935
277.48	3.946
278.81	3.954
280.15	3.961
281.5	3.967
283.04	3.965
284.6	3.965
286.17	3.959
287.59	3.948
289.01	3.939
290.46	3.929
291.73	3.916
293.02	3.905
295.99	3.854
296.18	3.85
296.37	3.848
296.56	3.843
296.75	3.839
296.94	3.837
297.13	3.833
297.32	3.831
297.51	3.826
297.7	3.822
297.89	3.82
298.08	3.816
298.27	3.813
298.46	3.809
298.65	3.805
298.84	3.803
299.81	3.781
300.77	3.758
301.75	3.72
302.73	3.688
303.72	3.656
304.71	3.621
305.71	3.585
306.72	3.551
307.73	3.51
308.75	3.47
309.78	3.431
310.81	3.382
311.85	3.335
312.9	3.293
313.95	3.242
315.02	3.184
316.09	3.124
317.16	3.064
318.25	2.99
319.34	2.921
320.44	2.86
321.54	2.796
322.66	2.727
323.78	2.653
324.91	2.593
326.04	2.542
327.19	2.497
328.34	2.437
329.5	2.388
330.67	2.347
331.85	2.313
333.04	2.285
334.23	2.268
335.44	2.247
336.65	2.232
337.87	2.219
339.1	2.204
340.34	2.194
341.59	2.183
342.85	2.172
344.11	2.162
345.39	2.149
346.67	2.132
347.97	2.121
349.27	2.106
350.59	2.091
351.91	2.072
353.25	2.057
354.59	2.036
355.95	2.017
357.31	1.997
358.69	1.974
360.08	1.946
361.47	1.916
362.88	1.893
364.3	1.863
365.73	1.831
367.17	1.793
368.63	1.752
370.09	1.718
371.57	1.679
373.06	1.643
374.56	1.594
376.07	1.554
377.59	1.513
379.13	1.47
380.68	1.421
382.24	1.376
383.82	1.325
385.41	1.272
