Uv/Vis Spectrum: p-Aminobenzoic acid
Formula: C7H7NO2
CAS: 150-13-0
Melting point: 188.5
Instrument: n.i.g.
Origin: INSTITUTE OF ENERGY PROBLEMS OF CHEMICAL PHYSICS, RAS
Wavelength (nm)	Logarithm epsilon
356.022	0.93225
355.689	1.03727
355.602	0.981293
355.541	1.04677
355.366	0.953784
355.195	0.979257
355.044	1.01974
355.007	0.978541
354.942	0.970096
354.885	0.961772
354.844	0.953687
354.783	1.01969
354.778	1.02497
353.783	1.13835
353.273	1.21061
353.237	1.23341
352.8	1.28447
352.681	1.29252
352.41	1.30922
352.328	1.34725
352.122	1.42378
352	1.42549
351.714	1.42951
350.94	1.55665
350.614	1.63687
350.351	1.64685
349.984	1.69168
349.826	1.66683
349.817	1.68429
349.163	1.76587
348.928	1.84842
348.83	1.9323
348.538	1.95973
348.025	1.98972
348.01	2.00609
347.962	2.00872
347.897	2.01135
347.824	2.01398
347.8	2.04146
347.79	2.05253
346.864	2.15495
346.526	2.23292
346.377	2.19961
346.139	2.23088
345.983	2.22164
345.961	2.23016
345.943	2.25076
345.925	2.27083
345.744	2.27449
345.722	2.30089
345.587	2.29453
345.469	2.30628
345.35	2.28181
345.326	2.30927
345.249	2.34466
345.057	2.4159
344.394	2.47907
343.486	2.56876
343.426	2.58581
343.267	2.62048
343.151	2.6222
342.88	2.62621
342.82	2.64326
342.661	2.67793
342.186	2.72124
341.383	2.80669
340.686	2.88827
340.467	2.89155
340.339	2.89349
340.304	2.99368
340.04	3.00276
339.736	3.04777
339.468	3.07394
339.244	3.08462
339.114	3.09024
339.075	3.13582
338.174	3.19954
337.951	3.24228
337.921	3.21888
337.727	3.24894
337.429	3.29188
337.167	3.31432
336.705	3.32338
336.481	3.3515
336.447	3.33318
336.092	3.35793
335.814	3.41069
335.66	3.43707
335.449	3.43863
335.325	3.43964
334.419	3.49227
334.413	3.49966
333.51	3.59138
333.096	3.61981
332.997	3.61979
332.408	3.66086
332.275	3.65449
332.227	3.64181
331.949	3.74132
329.413	3.8665
329.02	3.89253
328.418	3.91126
328.164	3.92509
327.946	3.94723
327.82	3.95829
327.592	3.96352
327.464	3.96614
326.825	4.00399
326.602	4.01771
325.835	4.03233
325.453	4.03964
324.922	4.08502
324.428	4.11335
322.737	4.16513
322.429	4.1784
321.788	4.18776
321.312	4.19716
321.304	4.20788
321.3	4.21353
320.871	4.21555
320.658	4.21655
320.212	4.22948
319.855	4.23538
319.758	4.24276
318.415	4.2678
316.42	4.27731
314.727	4.28595
313.864	4.29463
312.881	4.30241
310.591	4.30186
309.474	4.30159
307.622	4.29374
306.704	4.28981
306.513	4.2857
306.43	4.28393
304.672	4.2716
303.717	4.26688
303.121	4.25757
302.616	4.24758
302.513	4.24016
302.461	4.23645
302.085	4.23532
301.807	4.24542
301.62	4.24469
301.358	4.23353
301.154	4.22686
300.967	4.21705
300.653	4.22865
300.302	4.2132
299.983	4.21152
299.887	4.20779
299.724	4.20036
299.582	4.21405
299.392	4.21944
299.285	4.22242
298.986	4.19437
298.618	4.19161
298.526	4.18435
298.494	4.18102
298.033	4.1735
297.817	4.16975
297.451	4.16965
297.268	4.1696
297.094	4.15688
297.019	4.15052
296.422	4.1432
295.935	4.13914
295.579	4.1297
295.401	4.12527
295.049	4.12322
294.888	4.12249
294.694	4.11504
294.612	4.11132
293.555	4.0964
293.043	4.08924
292.601	4.07805
292.395	4.07269
292.307	4.06332
292.277	4.05893
291.399	4.05462
290.98	4.04219
290.976	4.04908
290.974	4.05276
290.115	4.02928
289.696	4.02282
289.356	4.01126
289.186	4.00578
288.754	3.99842
288.551	3.99504
288.245	3.97785
288.055	3.96215
287.813	3.95801
287.691	3.95624
287.18	3.95414
286.936	3.95338
286.853	3.94229
286.825	3.93698
285.605	3.90572
285.323	3.89799
284.748	3.87811
284.478	3.86764
284.144	3.86559
283.978	3.86485
283.819	3.85213
283.75	3.84577
283.334	3.83826
283.139	3.8345
282.561	3.81352
282.426	3.80155
282.33	3.80484
282.281	3.80679
281.774	3.79028
281.448	3.78489
281.131	3.76805
280.972	3.75992
280.326	3.75136
279.895	3.73213
279.891	3.73953
279.889	3.74322
279.384	3.71598
278.491	3.6884
278.278	3.67844
278.026	3.6608
276.96	3.63074
276.751	3.62185
276.073	3.60173
275.597	3.58875
275.156	3.5626
274.925	3.54787
274.616	3.54199
274.461	3.53928
274.312	3.52988
274.246	3.52548
274.093	3.52347
274.026	3.52277
273.738	3.49897
273.577	3.49252
273.187	3.49044
273.01	3.47861
273.006	3.48601
273.004	3.4897
272.773	3.47114
272.664	3.46741
272.518	3.45469
272.455	3.44833
271.111	3.39102
270.453	3.36266
270.311	3.34626
270.25	3.3383
270.101	3.33614
270.036	3.33506
269.807	3.32231
269.702	3.31594
269.11	3.29939
268.814	3.29136
268.742	3.27866
268.718	3.27231
268.281	3.2537
268.072	3.24464
267.839	3.22648
267.748	3.21442
267.462	3.20694
267.331	3.2032
267.167	3.19011
267.003	3.18407
266.932	3.17087
266.908	3.1645
266.537	3.16242
266.363	3.16168
266.274	3.13154
266.191	3.13942
266.13	3.14296
266.036	3.1452
265.981	3.13145
265.834	3.1314
265.767	3.11131
265.746	3.10126
265.244	3.0797
264.786	3.06556
264.483	3.03157
264.276	3.01045
264.013	3.00532
263.849	2.99922
263.779	2.98812
263.755	2.98281
263.392	2.98074
263.223	2.97999
263.086	2.96888
263.026	2.96355
262.693	2.95409
262.401	2.94961
262.249	2.93849
262.185	2.93316
261.829	2.92565
261.663	2.92189
261.381	2.91984
261.24	2.91911
261.167	2.9154
261.142	2.91379
260.787	2.91171
260.62	2.91097
260.205	2.90148
259.808	2.89432
259.467	2.8958
259.288	2.89678
259.008	2.90196
258.868	2.90455
258.221	2.92768
257.924	2.9375
257.79	2.95732
257.715	2.96172
257.44	2.96322
257.302	2.96421
256.907	3.0068
256.657	3.04638
256.521	3.04633
256.385	3.04628
256.252	3.04042
256.249	3.04623
256.232	3.08161
256.169	3.07852
255.956	3.09051
255.818	3.0952
255.655	3.12257
255.507	3.13893
254.892	3.18194
254.672	3.19619
254.465	3.22691
254.362	3.24256
254.14	3.26731
254.091	3.25146
254.064	3.2719
253.986	3.27954
253.955	3.25615
253.84	3.29677
253.392	3.31312
253.239	3.32138
253.158	3.33403
253.117	3.34035
252.848	3.34764
252.714	3.35129
252.706	3.3694
252.702	3.37875
252.456	3.37866
252.325	3.37861
252.321	3.3855
252.32	3.38918
252.185	3.39284
252.11	3.39491
252.044	3.413
252.003	3.42233
251.048	3.50164
250.894	3.51488
250.367	3.53108
250.104	3.53941
249.794	3.55886
249.629	3.56881
249.37	3.57243
249.24	3.57447
249.108	3.58131
249.033	3.58496
248.657	3.59432
248.46	3.599
248.161	3.61951
247.881	3.63153
247.625	3.63476
247.497	3.63666
247.438	3.64564
247.4	3.65036
247.088	3.66096
246.924	3.66655
246.3	3.68059
245.98	3.68784
245.384	3.7123
245.237	3.71502
244.93	3.72389
244.769	3.72857
244.521	3.73007
244.397	3.73106
244.393	3.73845
