Uv/Vis Spectrum: Benzyldisulfide
Formula: C14H14S2
CAS: 150-60-7
Melting point: 71.5
Instrument: Beckman DU
Origin: INSTITUTE OF ENERGY PROBLEMS OF CHEMICAL PHYSICS, RAS
Wavelength (nm)	Logarithm epsilon
232.879	3.98448
232.879	3.98448
233.455	3.96762
234.033	3.95076
234.612	3.93388
235.193	3.91697
235.774	3.90004
236.356	3.88308
236.356	3.88308
237.225	3.85863
238.064	3.83378
238.826	3.81053
239.461	3.79086
239.922	3.77677
240.16	3.77026
240.435	3.76039
240.929	3.7448
241.42	3.72908
241.91	3.71323
242.398	3.69726
242.884	3.68118
243.369	3.66501
243.852	3.64875
244.333	3.63241
244.813	3.616
245.292	3.59953
245.769	3.58301
246.245	3.56646
246.72	3.54987
247.193	3.53327
247.666	3.51665
247.666	3.51665
247.72	3.51247
247.777	3.50824
247.839	3.50389
247.839	3.50389
247.904	3.5039
247.972	3.50392
248.046	3.50393
248.046	3.50393
248.305	3.49752
248.6	3.4877
249.185	3.46604
249.785	3.44997
250.005	3.4477
250.214	3.44462
250.588	3.44256
251.082	3.433
252.389	3.39723
252.987	3.37967
253.25	3.37259
253.473	3.36402
253.677	3.36
253.948	3.35391
254.318	3.34511
254.82	3.33296
255.485	3.31683
256.345	3.29608
257.432	3.27008
258.778	3.23819
258.778	3.23819
259.239	3.22724
259.728	3.21642
260.122	3.20373
260.122	3.20373
260.212	3.20347
260.302	3.20316
260.393	3.20274
260.393	3.20274
261.498	3.18118
262.334	3.16497
262.996	3.15236
263.578	3.1416
264.174	3.13096
264.879	3.11868
265.788	3.10303
265.788	3.10303
266.307	3.09136
267.104	3.07377
268.02	3.05309
268.891	3.03213
269.557	3.01373
269.857	3.00071
269.857	3.00071
270.62	2.98389
271.226	2.96355
271.812	2.94187
272.511	2.92108
272.511	2.92108
272.877	2.90435
273.237	2.88752
273.593	2.8706
273.944	2.85358
274.291	2.83647
274.635	2.81929
274.975	2.80204
275.312	2.78471
275.647	2.76734
275.979	2.74991
276.309	2.73243
276.638	2.71491
276.965	2.69737
277.291	2.67979
277.617	2.6622
277.942	2.64459
277.942	2.64459
278.478	2.62486
279.044	2.60395
279.552	2.58205
279.746	2.59064
279.748	2.58699
279.75	2.58333
279.751	2.57968
279.916	2.55934
279.916	2.55934
280.481	2.54367
281.03	2.52802
281.566	2.51233
282.092	2.49657
282.609	2.48069
283.12	2.46464
283.628	2.44838
284.135	2.43187
284.642	2.41505
285.154	2.39789
285.672	2.38033
285.672	2.38033
285.914	2.36877
286.124	2.3586
286.324	2.34872
286.534	2.33798
286.775	2.32526
287.068	2.30943
287.436	2.28937
287.898	2.26394
288.476	2.23203
289.191	2.1925
289.191	2.1925
289.675	2.17628
290.175	2.1536
290.701	2.132
291.263	2.11902
291.263	2.11902
291.655	2.09936
292.129	2.08043
292.648	2.06182
293.175	2.0431
293.672	2.02385
294.102	2.00365
294.102	2.00365
294.592	1.98772
295.06	1.97147
295.509	1.95496
295.945	1.93823
296.371	1.92135
296.793	1.90435
297.215	1.88729
297.643	1.87023
298.08	1.8532
298.531	1.83627
299.001	1.81948
299.495	1.80289
299.495	1.80289
299.521	1.79591
299.595	1.7897
299.878	1.78364
299.878	1.78364
300.258	1.76723
300.652	1.75082
301.059	1.7344
301.474	1.71797
301.896	1.70151
302.321	1.68502
302.748	1.66848
303.174	1.65189
303.595	1.63523
304.009	1.61851
304.414	1.6017
304.807	1.58479
305.186	1.56778
305.546	1.55066
305.887	1.53342
306.205	1.51604
