Uv/Vis Spectrum: 1,2-Dianilinoethane
Formula: C14H16N2
CAS: 150-61-8
Melting point: 63.5
Instrument: Beckman DU
Origin: INSTITUTE OF ENERGY PROBLEMS OF CHEMICAL PHYSICS, RAS
Wavelength (nm)	Logarithm epsilon
214.65	4.014
215.15	3.987
215.81	3.96
216.63	3.936
217.45	3.909
218.28	3.885
219.27	3.861
220.75	3.855
222.23	3.858
223.38	3.875
224.53	3.892
225.52	3.916
226.35	3.94
227.5	3.96
228.32	3.987
229.14	4.011
229.97	4.038
230.79	4.065
231.61	4.093
232.44	4.12
233.26	4.144
233.92	4.171
234.74	4.198
235.57	4.225
236.23	4.252
237.05	4.276
237.71	4.303
238.7	4.327
239.52	4.351
240.51	4.371
241.49	4.395
242.48	4.415
243.63	4.432
244.79	4.449
246.1	4.466
247.59	4.473
249.07	4.473
250.39	4.46
251.54	4.439
252.36	4.415
253.02	4.388
253.51	4.361
254.01	4.334
254.5	4.307
254.83	4.276
255.33	4.245
255.66	4.215
255.98	4.184
256.31	4.154
256.64	4.123
256.81	4.093
257.14	4.062
257.47	4.031
257.8	4.001
257.96	3.97
258.45	3.943
258.62	3.912
258.95	3.882
259.28	3.851
259.61	3.821
259.94	3.79
260.27	3.759
260.59	3.729
260.92	3.698
261.42	3.671
261.91	3.644
262.24	3.613
262.57	3.583
263.06	3.556
263.39	3.525
263.89	3.498
264.38	3.471
264.88	3.443
265.37	3.416
266.03	3.389
266.69	3.362
267.51	3.335
268.5	3.311
269.98	3.301
271.3	3.318
272.62	3.335
273.77	3.352
274.76	3.372
275.74	3.396
276.73	3.416
277.72	3.44
278.71	3.464
279.7	3.484
280.68	3.505
281.84	3.525
282.82	3.549
283.98	3.569
285.13	3.586
286.45	3.6
287.76	3.613
289.08	3.623
290.4	3.634
291.88	3.637
293.36	3.64
294.84	3.634
296.16	3.62
297.31	3.6
298.3	3.576
299.29	3.552
300.11	3.525
300.94	3.498
301.76	3.471
302.42	3.443
302.91	3.416
303.57	3.389
304.07	3.362
304.56	3.335
305.22	3.307
305.71	3.28
306.21	3.253
306.54	3.222
307.03	3.192
307.36	3.161
307.69	3.131
308.02	3.1
308.33	3.066
308.67	3.026
309.12	2.978
309.57	2.928
310.05	2.873
310.54	2.815
311.15	2.74
311.65	2.664
312.06	2.604
312.79	2.498
313.62	2.363
314.44	2.233
315.26	2.128
316.09	1.999
