Uv/Vis Spectrum: 4-Ethoxyphenylurea
Formula: C9H12N2O2
CAS: 150-69-6
Melting point: 173
Instrument: Beckman DU
Origin: INSTITUTE OF ENERGY PROBLEMS OF CHEMICAL PHYSICS, RAS
Wavelength (nm)	Logarithm epsilon
207.64	4.204
208.15	4.176
208.83	4.149
209.17	4.118
209.68	4.091
210.02	4.06
210.36	4.029
210.87	3.999
211.21	3.968
211.55	3.937
211.89	3.906
212.23	3.876
212.57	3.845
212.91	3.814
213.25	3.783
213.76	3.753
214.27	3.725
214.78	3.698
215.46	3.671
216.31	3.647
217.66	3.633
219.19	3.64
220.38	3.66
221.4	3.684
222.25	3.712
223.1	3.739
223.78	3.766
224.46	3.794
225.14	3.821
225.82	3.848
226.67	3.876
227.35	3.903
228.2	3.93
228.88	3.958
229.72	3.985
230.4	4.012
231.25	4.04
232.1	4.067
232.95	4.091
233.8	4.115
234.65	4.139
235.67	4.163
236.69	4.187
237.71	4.207
239.07	4.224
240.43	4.238
241.95	4.241
243.48	4.248
245.01	4.241
246.54	4.235
247.9	4.217
249.09	4.197
250.11	4.176
251.3	4.156
252.15	4.129
252.82	4.101
253.67	4.074
254.18	4.047
254.69	4.019
255.2	3.992
255.88	3.965
256.22	3.934
256.56	3.903
257.07	3.872
257.41	3.842
257.58	3.811
257.92	3.78
258.26	3.749
258.43	3.719
258.77	3.688
258.94	3.657
259.11	3.626
259.28	3.595
259.45	3.565
259.62	3.534
259.96	3.503
260.13	3.472
260.47	3.442
260.81	3.411
260.98	3.38
261.32	3.349
261.49	3.319
262	3.291
262.17	3.261
262.51	3.23
262.85	3.199
263.19	3.168
263.53	3.138
263.87	3.107
264.2	3.076
264.71	3.049
265.22	3.018
265.56	2.987
266.24	2.96
267.09	2.933
268.62	2.922
269.98	2.936
271.17	2.953
272.36	2.974
273.55	2.994
274.4	3.018
275.58	3.038
276.6	3.062
277.62	3.086
278.64	3.11
279.66	3.131
280.68	3.155
281.7	3.175
282.89	3.192
284.08	3.209
285.27	3.226
286.63	3.24
288.15	3.25
289.68	3.257
291.21	3.261
292.74	3.257
294.1	3.247
295.46	3.237
296.82	3.22
298.01	3.199
299.02	3.179
300.04	3.158
301.06	3.134
301.91	3.107
302.76	3.079
303.61	3.052
304.12	3.025
304.63	2.997
305.31	2.97
305.82	2.943
306.16	2.912
306.67	2.885
307.18	2.857
307.52	2.827
310.24	2.594
310.4	2.587
311.25	2.492
312.27	2.358
313.29	2.191
314.31	1.969
315.33	1.808
316.35	1.641
317.37	1.48
318.39	1.333
319.41	1.207
320.43	1.06
