Uv/Vis Spectrum: Methane, bromodifluoro-
Formula: CHBrF2
CAS: 1511-62-2
Melting point: - 14.5
Instrument: Beckman DU
Origin: INSTITUTE OF ENERGY PROBLEMS OF CHEMICAL PHYSICS, RAS
Wavelength (nm)	Logarithm epsilon
205.22	1.783
205.36	1.78
205.51	1.777
205.66	1.777
205.81	1.774
205.96	1.774
206.11	1.771
206.26	1.771
206.41	1.768
206.56	1.768
206.71	1.765
207	1.744
207.6	1.729
208.2	1.714
208.79	1.702
209.39	1.687
209.98	1.672
210.58	1.654
211.18	1.639
211.77	1.624
212.37	1.606
212.96	1.588
213.56	1.567
214.16	1.555
214.75	1.531
215.35	1.507
215.94	1.489
216.54	1.462
217.14	1.438
217.73	1.414
218.33	1.381
218.92	1.366
219.52	1.348
220.12	1.303
220.71	1.27
221.31	1.246
221.9	1.21
222.5	1.18
223.1	1.147
223.69	1.117
224.29	1.084
224.88	1.048
225.48	1.018
226.08	0.982
226.67	0.955
227.27	0.925
227.86	0.88
228.46	0.844
229.06	0.808
229.65	0.781
230.25	0.742
230.84	0.703
231.44	0.657
232.04	0.621
232.63	0.588
233.23	0.555
233.82	0.513
234.42	0.471
235.02	0.432
235.61	0.393
236.21	0.372
236.8	0.33
237.4	0.267
238	0.216
238.59	0.18
239.19	0.138
239.78	0.09
240.38	0.042
240.98	-0.003
241.57	-0.033
242.17	-0.096
242.76	-0.135
243.36	-0.189
243.96	-0.222
244.55	-0.261
245.15	-0.297
245.75	-0.33
246.34	-0.366
246.94	-0.42
247.53	-0.457
248.13	-0.502
248.73	-0.556
249.32	-0.607
249.92	-0.646
250.51	-0.724
251.11	-0.778
