Uv/Vis Spectrum: 1,3-Dimethoxybenzene
Formula: C8H10O2
CAS: 151-10-0
Boiling point: 212
Instrument: Beckman DU
Origin: INSTITUTE OF ENERGY PROBLEMS OF CHEMICAL PHYSICS, RAS
Wavelength (nm)	Logarithm epsilon
204.52	3.61
204.73	3.623
204.97	3.638
205.21	3.652
205.5	3.67
205.89	3.689
206.73	3.723
207.57	3.753
208.41	3.77
209.25	3.774
210.09	3.75
210.93	3.716
211.77	3.676
212.61	3.649
213.45	3.635
214.29	3.625
215.13	3.615
215.98	3.611
216.82	3.608
217.66	3.611
218.5	3.611
219.34	3.611
220.18	3.615
221.02	3.615
221.86	3.625
222.7	3.628
223.54	3.628
224.38	3.628
225.22	3.625
226.07	3.615
226.91	3.598
227.75	3.584
228.59	3.561
229.43	3.534
230.27	3.497
231.11	3.453
231.95	3.402
232.79	3.351
233.63	3.307
234.47	3.243
235.31	3.179
236.15	3.098
237	3.01
237.84	2.953
238.68	2.882
239.52	2.807
240.36	2.733
241.2	2.669
242.04	2.622
242.88	2.571
243.72	2.53
244.56	2.497
245.4	2.48
246.24	2.476
247.09	2.476
247.93	2.49
248.77	2.5
249.61	2.52
250.45	2.541
251.29	2.564
252.13	2.584
252.97	2.611
253.81	2.632
254.65	2.659
255.49	2.679
256.33	2.709
257.17	2.74
258.02	2.764
258.86	2.791
259.7	2.824
260.54	2.855
261.38	2.885
262.22	2.905
263.06	2.936
263.9	2.956
264.74	2.983
265.58	3.003
266.42	3.02
267.26	3.051
268.11	3.068
268.95	3.088
269.79	3.105
270.63	3.128
271.47	3.145
272.31	3.162
273.15	3.179
273.99	3.196
274.83	3.213
275.67	3.22
276.51	3.216
277.35	3.199
278.2	3.182
279.04	3.179
279.88	3.176
280.72	3.172
281.56	3.176
282.4	3.162
283.24	3.135
284.08	3.095
284.92	3
285.76	2.882
286.6	2.747
287.44	2.642
288.28	2.517
289.13	2.372
289.97	2.257
290.81	2.159
291.65	2.057
292.49	1.973
293.33	1.916
294.17	1.841
295.01	1.774
295.85	1.706
296.69	1.642
297.53	1.584
298.37	1.517
299.1	1.461
300.06	1.412
300.9	1.361
301.74	1.304
302.58	1.267
303.42	1.23
304.26	1.182
305.1	1.162
305.94	1.139
306.78	1.108
307.62	1.084
308.46	1.064
309.3	1.047
