Uv/Vis Spectrum: 2-(2-Phenylvinyl)pyridine, cis
Formula: C13H11N
CAS: 1519-59-1
Boiling point: 150-152/ 10 mm
Instrument: Unicam SP 700
Origin: INSTITUTE OF ENERGY PROBLEMS OF CHEMICAL PHYSICS, RAS
Wavelength (nm)	Logarithm epsilon
200.26	4.288
200.34	4.285
200.43	4.283
200.52	4.283
200.6	4.281
200.69	4.279
200.78	4.279
200.86	4.277
200.95	4.275
201.04	4.275
201.12	4.273
201.21	4.271
201.3	4.271
201.38	4.268
201.47	4.268
201.56	4.266
201.82	4.256
202.34	4.247
202.87	4.239
203.4	4.23
203.94	4.219
204.48	4.215
205.02	4.207
205.56	4.198
206.1	4.189
206.65	4.185
207.2	4.177
207.76	4.17
208.31	4.166
208.87	4.16
209.44	4.155
210	4.153
210.57	4.147
211.15	4.143
211.72	4.143
212.3	4.14
212.88	4.136
213.47	4.136
214.06	4.136
214.65	4.136
215.24	4.136
215.84	4.143
216.44	4.145
217.05	4.145
217.66	4.145
218.27	4.145
218.88	4.143
219.5	4.138
220.12	4.132
220.75	4.123
221.38	4.115
222.01	4.106
222.65	4.096
223.29	4.083
223.93	4.072
224.58	4.059
225.23	4.047
225.88	4.03
226.54	4.017
227.21	4
227.87	3.987
228.54	3.97
229.22	3.955
229.9	3.938
230.58	3.919
231.27	3.904
231.96	3.884
232.65	3.865
233.35	3.852
234.05	3.842
234.76	3.829
235.47	3.81
236.19	3.784
236.91	3.759
237.63	3.729
238.36	3.705
239.1	3.688
239.84	3.678
240.58	3.673
241.33	3.669
242.08	3.669
242.83	3.671
243.6	3.675
244.36	3.682
245.13	3.686
245.91	3.695
246.69	3.703
247.48	3.71
248.27	3.716
249.06	3.727
249.87	3.735
250.67	3.746
251.48	3.752
252.3	3.759
253.12	3.769
253.95	3.778
254.78	3.786
255.62	3.795
256.47	3.801
257.32	3.81
258.17	3.818
259.03	3.825
259.9	3.833
260.77	3.84
261.65	3.848
262.54	3.855
263.43	3.859
264.32	3.867
265.22	3.876
266.13	3.88
267.05	3.889
267.97	3.895
268.9	3.902
269.83	3.908
270.77	3.914
271.72	3.921
272.67	3.927
273.63	3.931
274.6	3.938
275.58	3.942
276.56	3.951
277.55	3.955
278.54	3.961
279.54	3.968
280.55	3.972
281.57	3.976
282.6	3.983
283.63	3.985
284.67	3.991
285.71	3.991
286.77	3.993
287.83	4
288.9	4.002
289.98	4.006
291.07	4.008
292.16	4.008
293.27	4.008
294.38	4.006
295.5	4.004
296.63	4
297.76	3.995
298.91	3.991
300.06	3.983
301.23	3.974
302.4	3.968
303.58	3.957
304.77	3.946
305.98	3.934
307.19	3.919
308.41	3.906
309.63	3.891
310.87	3.876
312.12	3.855
313.38	3.833
314.65	3.812
315.93	3.789
317.22	3.763
318.52	3.735
319.84	3.705
321.13	3.679
322.49	3.639
323.84	3.599
325.19	3.565
326.56	3.524
327.94	3.484
329.33	3.434
330.73	3.383
332.15	3.33
333.5	3.278
334.99	3.221
336.55	3.158
337.87	3.09
339.31	3.002
340.57	2.903
341.49	2.824
342.3	2.757
343.04	2.684
343.73	2.626
344.25	2.574
344.71	2.517
345.19	2.481
346.15	2.397
347.24	2.295
348.28	2.206
349.14	2.121
350.38	2.014
351.43	1.929
352.5	1.845
353.57	1.737
354.64	1.645
355.73	1.557
356.81	1.455
357.91	1.368
