Uv/Vis Spectrum: Anisole, p-nitroso-
Formula: C7H7NO2
CAS: 1516-21-8
Melting point: 32-34
Instrument: n.i.g.
Origin: INSTITUTE OF ENERGY PROBLEMS OF CHEMICAL PHYSICS, RAS
Wavelength (nm)	Logarithm epsilon
240.51	3.754
240.81	3.758
241.11	3.766
241.42	3.778
241.73	3.786
242.03	3.79
242.34	3.798
242.65	3.806
242.96	3.814
243.27	3.826
243.58	3.834
243.89	3.846
244.2	3.85
244.51	3.854
244.83	3.87
245.14	3.874
245.45	3.882
245.77	3.886
246.09	3.886
246.4	3.886
246.72	3.886
247.04	3.886
247.36	3.882
247.68	3.874
248.01	3.866
248.33	3.862
248.65	3.858
248.98	3.85
249.3	3.842
249.63	3.834
249.95	3.822
250.28	3.81
250.61	3.794
250.94	3.778
251.27	3.762
251.6	3.746
251.93	3.73
252.27	3.714
252.6	3.697
252.93	3.673
253.27	3.661
253.61	3.637
253.94	3.613
254.28	3.589
254.62	3.561
254.96	3.537
255.3	3.521
255.64	3.464
255.99	3.44
256.33	3.424
256.67	3.392
257.02	3.324
257.37	3.279
257.71	3.255
258.06	3.207
258.41	3.155
258.76	3.098
259.11	3.066
259.46	3.03
259.82	2.958
260.17	2.91
260.53	2.865
260.88	2.805
261.24	2.757
261.6	2.713
261.96	2.696
262.32	2.676
262.68	2.668
263.04	2.652
263.4	2.628
263.77	2.632
264.13	2.624
264.5	2.62
264.86	2.62
265.23	2.624
265.6	2.624
265.97	2.628
266.34	2.628
266.71	2.636
267.09	2.64
267.46	2.648
267.84	2.656
268.21	2.668
268.59	2.68
268.97	2.692
269.35	2.701
269.73	2.709
270.11	2.717
270.49	2.729
270.88	2.741
271.26	2.749
271.65	2.757
272.03	2.773
272.42	2.777
272.81	2.789
273.2	2.809
273.59	2.825
273.99	2.833
274.38	2.845
274.77	2.853
275.17	2.869
275.57	2.881
275.97	2.897
276.36	2.914
276.77	2.922
277.17	2.938
277.57	2.954
277.97	2.962
278.38	2.978
278.79	3.002
279.19	3.01
279.6	3.022
280.01	3.038
280.42	3.054
280.84	3.074
281.25	3.09
281.66	3.098
282.08	3.119
282.5	3.127
282.92	3.151
283.34	3.167
283.76	3.179
284.18	3.199
284.6	3.207
285.03	3.223
285.45	3.235
285.88	3.247
286.31	3.263
286.74	3.295
287.17	3.308
287.6	3.316
288.04	3.32
288.47	3.324
288.91	3.328
289.35	3.336
289.79	3.344
290.23	3.356
290.67	3.356
291.11	3.356
291.56	3.356
292	3.356
292.45	3.356
292.9	3.356
293.35	3.36
293.8	3.36
294.25	3.364
294.71	3.368
295.16	3.372
295.62	3.376
296.08	3.376
296.54	3.376
297	3.384
297.46	3.392
297.93	3.4
298.39	3.4
298.86	3.412
299.33	3.416
299.8	3.42
300.27	3.424
300.74	3.424
301.22	3.432
301.69	3.444
302.17	3.452
302.65	3.468
303.13	3.472
303.61	3.48
304.1	3.488
304.58	3.496
305.07	3.505
305.56	3.513
306.05	3.517
306.54	3.525
307.03	3.533
307.52	3.537
308.02	3.541
308.52	3.561
309.02	3.577
309.52	3.589
310.02	3.601
310.53	3.609
311.03	3.617
311.54	3.641
312.05	3.653
312.56	3.665
313.07	3.689
313.59	3.702
314.1	3.71
314.62	3.722
315.14	3.734
315.66	3.75
316.18	3.762
316.71	3.774
317.23	3.786
317.76	3.798
318.29	3.806
318.82	3.822
319.35	3.838
319.89	3.842
320.43	3.858
320.97	3.866
321.51	3.89
322.05	3.898
322.59	3.911
323.14	3.919
323.69	3.931
324.24	3.939
324.79	3.955
325.34	3.963
325.9	3.971
326.45	3.987
327.01	3.995
327.57	4.007
328.14	4.015
328.7	4.019
329.27	4.027
329.84	4.047
330.41	4.051
330.98	4.063
331.56	4.071
332.13	4.087
332.71	4.095
333.29	4.104
333.87	4.112
334.46	4.12
335.05	4.128
335.64	4.14
336.23	4.152
336.82	4.16
337.41	4.164
338.01	4.176
338.61	4.172
339.21	4.18
339.82	4.2
340.42	4.2
341.03	4.212
341.64	4.212
342.25	4.22
342.87	4.228
343.48	4.232
344.1	4.232
344.73	4.232
345.35	4.232
345.97	4.232
346.6	4.232
347.23	4.224
347.87	4.22
348.5	4.216
349.14	4.204
349.78	4.196
350.42	4.18
351.06	4.172
351.71	4.172
352.36	4.16
353.01	4.148
353.66	4.136
354.32	4.128
354.98	4.116
355.64	4.099
356.3	4.091
356.97	4.083
357.64	4.071
358.31	4.063
358.98	4.047
359.66	4.039
360.34	4.031
361.02	3.987
361.71	3.975
362.39	3.959
363.08	3.943
363.77	3.919
364.47	3.903
365.16	3.886
365.86	3.878
366.57	3.866
367.27	3.854
367.98	3.806
368.69	3.782
369.4	3.742
370.12	3.714
370.84	3.689
371.56	3.677
372.28	3.649
373.01	3.617
373.74	3.593
374.47	3.577
375.21	3.553
375.95	3.48
376.69	3.46
377.44	3.436
378.18	3.368
378.93	3.328
379.69	3.283
380.44	3.255
381.2	3.171
381.97	3.111
382.73	3.082
383.5	3.046
384.27	3.03
385.05	2.954
385.83	2.902
386.61	2.873
387.39	2.857
388.18	2.781
388.97	2.692
389.76	2.684
390.56	2.668
391.36	2.624
392.17	2.604
392.97	2.536
393.78	2.483
394.6	2.435
395.41	2.403
396.23	2.351
397.06	2.29
397.89	2.266
398.72	2.222
399.55	2.146
400.39	2.114
401.23	2.077
402.08	2.045
402.92	1.929
403.78	1.901
404.63	1.892
405.49	1.876
406.35	1.796
407.22	1.768
408.09	1.744
408.97	1.691
409.84	1.671
410.73	1.631
411.61	1.595
412.5	1.539
412.95	1.511
413.39	1.507
413.84	1.503
414.29	1.498
