Uv/Vis Spectrum: Disulfide, bis(2-methylpropyl)
Formula: C8H18S2
CAS: 1518-72-5
Boiling point: 220
Instrument: unknown
Origin: INSTITUTE OF ENERGY PROBLEMS OF CHEMICAL PHYSICS, RAS
Wavelength (nm)	Logarithm epsilon
214.74	4.079
214.91	4.072
215.08	4.066
215.25	4.057
215.42	4.051
215.59	4.044
215.76	4.038
215.94	4.029
216.2	4.014
216.44	3.997
216.7	3.978
216.94	3.96
217.17	3.938
217.4	3.916
217.64	3.889
218.03	3.854
218.42	3.823
218.98	3.794
219.83	3.766
220.67	3.746
221.52	3.738
222.37	3.729
223.22	3.723
224.06	3.719
224.91	3.716
225.76	3.714
226.61	3.714
227.46	3.715
228.3	3.716
229.15	3.721
229.99	3.725
230.84	3.731
231.69	3.74
232.54	3.75
233.38	3.759
234.15	3.77
234.99	3.784
235.91	3.801
236.77	3.821
237.65	3.841
238.47	3.862
239.32	3.879
240.16	3.897
241.01	3.916
241.94	3.935
242.75	3.951
243.55	3.965
244.4	3.982
245.26	3.998
246.09	4.014
246.92	4.03
247.87	4.047
248.64	4.061
249.48	4.076
250.33	4.089
251.18	4.1
252.03	4.109
252.87	4.113
253.72	4.102
254.57	4.089
255.37	4.074
256.26	4.055
257.11	4.031
257.96	4.006
258.72	3.97
259.32	3.912
259.65	3.862
260.01	3.78
260.22	3.731
260.52	3.667
260.81	3.597
261.08	3.533
261.35	3.47
261.5	3.428
261.77	3.373
262.07	3.304
262.36	3.234
262.46	3.22
262.55	3.204
262.7	3.179
262.82	3.165
263.04	3.153
263.2	3.15
263.38	3.149
263.55	3.149
263.8	3.153
263.92	3.162
264.06	3.172
264.23	3.181
264.37	3.186
264.57	3.187
264.74	3.189
264.9	3.189
265.07	3.189
265.24	3.187
265.41	3.185
265.58	3.18
265.75	3.174
265.92	3.166
266.02	3.158
266.22	3.146
266.46	3.133
266.66	3.122
266.89	3.11
267.16	3.097
267.45	3.086
267.62	3.08
267.79	3.074
268.07	3.061
268.59	3.042
269.14	3.018
269.67	2.996
270.16	2.971
270.65	2.947
271.17	2.919
271.68	2.898
272.19	2.874
272.7	2.849
273.21	2.831
273.72	2.827
274.22	2.829
274.73	2.831
275.24	2.834
275.75	2.838
276.26	2.842
276.77	2.842
277.28	2.84
277.78	2.834
278.29	2.825
278.8	2.812
279.31	2.808
279.82	2.812
280.23	2.822
280.55	2.831
280.89	2.835
281.34	2.836
281.8	2.83
282.36	2.821
282.87	2.81
283.38	2.799
283.88	2.789
284.39	2.778
284.9	2.767
285.4	2.757
285.92	2.744
286.42	2.733
286.93	2.722
287.37	2.71
287.97	2.695
288.46	2.681
288.89	2.669
289.48	2.651
