Uv/Vis Spectrum: 2,3-Dimethoxybenzoic acid
Formula: C9H10O4
CAS: 1521-38-6
Melting point: 120-122
Instrument: Unicam SP 700
Origin: INSTITUTE OF ENERGY PROBLEMS OF CHEMICAL PHYSICS, RAS
Wavelength (nm)	Logarithm epsilon
209.4	4.247
211.22	4.268
213.96	4.262
215.47	4.241
216.69	4.216
217.29	4.189
217.9	4.161
219.11	4.137
219.72	4.109
220.63	4.085
221.54	4.061
222.45	4.033
223.36	4.009
224.27	3.984
225.18	3.96
225.79	3.932
226.7	3.908
227.61	3.884
228.21	3.856
228.82	3.829
230.03	3.804
230.94	3.78
231.85	3.752
232.76	3.725
233.37	3.697
234.28	3.673
235.19	3.649
235.8	3.621
237.01	3.597
237.62	3.569
238.53	3.545
239.44	3.517
240.04	3.49
240.96	3.466
241.87	3.441
243.38	3.42
244.9	3.398
245.81	3.374
246.42	3.347
246.72	3.319
247.33	3.292
247.93	3.264
248.54	3.237
248.84	3.209
249.75	3.185
250.36	3.157
250.97	3.13
251.57	3.102
251.88	3.075
252.48	3.047
253.09	3.02
253.39	2.993
254	2.965
254.61	2.938
255.21	2.91
255.82	2.883
256.43	2.855
257.94	2.831
260.67	2.828
262.49	2.846
263.71	2.87
264.92	2.895
266.13	2.919
267.04	2.944
267.96	2.968
269.17	2.993
270.08	3.02
270.99	3.044
272.2	3.069
273.11	3.093
274.02	3.118
275.24	3.142
276.45	3.166
277.36	3.191
278.57	3.215
280.39	3.237
282.52	3.252
284.94	3.264
287.67	3.27
290.4	3.273
293.13	3.267
295.26	3.252
297.38	3.237
299.51	3.218
301.33	3.2
302.54	3.176
303.75	3.151
304.66	3.127
305.57	3.102
306.48	3.078
307.39	3.051
308	3.023
308.91	2.999
309.52	2.971
310.12	2.944
310.73	2.916
311.34	2.889
311.64	2.861
312.55	2.834
312.85	2.806
313.76	2.782
314.37	2.755
314.98	2.727
315.58	2.7
