Uv/Vis Spectrum: 1,1,2-Triphenylethane
Formula: C20H18
CAS: 1520-42-9
Melting point: 57
Instrument: Beckman DU
Origin: INSTITUTE OF ENERGY PROBLEMS OF CHEMICAL PHYSICS, RAS
Wavelength (nm)	Logarithm epsilon
206.19	4.39106
206.578	4.39963
206.795	4.40269
207.177	4.40537
207.984	4.40793
208.761	4.40496
209.94	4.40188
210.532	4.40173
210.903	4.39574
211.116	4.39569
211.487	4.3897
213.625	4.35761
213.811	4.35444
214.02	4.35161
214.389	4.34285
214.598	4.34002
214.787	4.33998
215.179	4.33121
215.756	4.31928
215.942	4.31646
216.334	4.30769
216.702	4.29893
216.911	4.2961
217.28	4.28734
217.462	4.2814
217.671	4.27823
217.853	4.27263
218.036	4.26669
218.245	4.26387
218.431	4.2607
218.613	4.25511
218.819	4.24916
219.005	4.24634
219.194	4.24629
219.771	4.23436
219.978	4.22876
220.163	4.22559
220.342	4.21688
220.548	4.21128
220.73	4.20534
220.909	4.19663
221.112	4.18791
221.294	4.18197
221.476	4.17638
221.682	4.17043
221.861	4.16172
222.047	4.1589
222.253	4.15295
222.428	4.14112
222.607	4.13241
222.999	4.12364
223.171	4.10938
223.369	4.09755
223.548	4.08883
223.724	4.07735
223.896	4.06275
224.095	4.05126
224.274	4.04254
224.446	4.02794
224.648	4.01922
224.82	4.00462
224.992	3.99036
225.188	3.97575
225.359	3.96115
225.525	3.941
225.731	3.93506
225.909	3.92634
226.047	3.88298
226.218	3.84827
226.373	3.81946
226.538	3.79896
226.723	3.77569
226.895	3.76143
227.057	3.73816
227.246	3.71801
227.41	3.69752
227.579	3.68014
227.764	3.65687
227.926	3.63395
228.084	3.60791
228.273	3.5874
228.441	3.57003
228.606	3.54988
228.788	3.52384
228.953	3.50334
229.125	3.48908
229.307	3.46304
229.465	3.437
229.63	3.4165
229.795	3.39636
229.973	3.36719
230.142	3.34982
230.297	3.321
230.489	3.30362
230.647	3.27758
230.808	3.25432
230.99	3.22827
231.151	3.205
231.31	3.17896
231.499	3.15881
231.66	3.13554
231.828	3.11817
232.01	3.09212
232.176	3.07197
232.337	3.04871
232.525	3.02821
232.694	3.01083
232.856	2.98791
233.044	2.96741
233.209	2.94726
233.375	2.92711
233.57	2.9125
233.732	2.88924
233.897	2.86909
234.085	2.84859
234.254	2.83121
234.416	2.80829
234.608	2.79091
234.776	2.77319
234.944	2.75581
235.137	2.73843
235.302	2.71828
235.47	2.70091
235.639	2.68353
235.827	2.66303
235.996	2.64565
236.168	2.6314
236.36	2.61401
236.532	2.59941
236.701	2.58203
236.896	2.56743
237.065	2.55005
237.24	2.53857
237.435	2.52396
237.611	2.51247
237.78	2.4951
237.982	2.48638
238.154	2.47177
238.326	2.45717
238.525	2.44568
238.704	2.43697
238.879	2.42548
239.078	2.41365
239.254	2.40216
239.425	2.38756
239.628	2.37884
239.807	2.37013
239.986	2.36142
240.191	2.35547
240.374	2.34988
240.56	2.34671
240.769	2.34388
241.357	2.34096
242.141	2.34353
242.337	2.34937
242.53	2.3521
242.75	2.35793
242.945	2.36343
243.142	2.36927
243.362	2.37511
243.557	2.38061
243.754	2.38645
243.973	2.39229
244.169	2.39778
244.365	2.40362
244.589	2.41223
244.785	2.41807
244.984	2.42669
245.201	2.42941
245.4	2.43802
245.596	2.44387
245.816	2.4497
246.012	2.4552
246.212	2.46381
246.432	2.46965
246.631	2.47827
246.827	2.48411
247.047	2.4896
247.243	2.49544
247.439	2.50128
247.663	2.50989
247.858	2.51539
248.055	2.52123
248.278	2.52984
248.474	2.53568
248.863	2.54425
249.083	2.55009
249.279	2.55558
249.475	2.56143
249.891	2.57276
250.087	2.5786
250.307	2.58444
250.503	2.58994
250.699	2.59578
250.919	2.60161
251.114	2.60711
251.311	2.61295
251.531	2.61879
251.726	2.62429
251.923	2.63013
252.143	2.63597
252.339	2.64146
252.535	2.6473
252.755	2.65314
252.95	2.65864
253.147	2.66448
253.363	2.66754
253.563	2.67616
253.759	2.68166
253.978	2.68749
254.175	2.69333
254.371	2.69883
254.59	2.70467
254.787	2.71051
255.392	2.7218
256.19	2.73615
256.595	2.73882
258.372	2.74114
258.565	2.74421
258.768	2.7556
258.994	2.76698
259.39	2.78143
259.607	2.7845
259.803	2.78999
259.995	2.79306
260.593	2.79846
263.144	2.79503
263.729	2.78899
263.942	2.78893
264.31	2.78017
264.519	2.77734
264.701	2.77141
264.887	2.76858
265.093	2.76264
265.275	2.7567
265.458	2.75111
265.66	2.74239
265.839	2.73367
266.021	2.72774
266.224	2.71902
266.399	2.70753
266.574	2.6957
266.777	2.68698
266.956	2.67827
267.131	2.66679
267.33	2.65495
267.509	2.64624
267.698	2.64619
268.286	2.64326
268.479	2.64599
268.699	2.65183
268.898	2.66044
269.094	2.66628
269.314	2.67212
269.696	2.6748
270.28	2.66875
270.493	2.6687
270.665	2.65409
270.813	2.61939
271.002	2.59924
271.167	2.57909
271.335	2.56171
271.517	2.53567
271.682	2.51517
271.837	2.48636
272.008	2.45165
272.159	2.41972
272.307	2.38502
272.479	2.35031
272.63	2.31838
272.771	2.27779
272.945	2.24585
273.079	2.19971
273.203	2.14456
