Uv/Vis Spectrum: Isoquinoline, 2-oxide
Formula: C9H7NO
CAS: 1532-72-5
Instrument: Beckman DU
Origin: INSTITUTE OF ENERGY PROBLEMS OF CHEMICAL PHYSICS, RAS
Wavelength (nm)	Logarithm epsilon
212.14	4.174
212.31	4.181
212.48	4.186
212.64	4.191
213.48	4.236
214.32	4.278
215.16	4.312
215.99	4.334
216.83	4.349
217.67	4.356
218.51	4.358
219.34	4.354
220.18	4.348
221.02	4.337
221.86	4.325
222.69	4.309
223.53	4.292
224.37	4.275
225.22	4.26
226.03	4.246
226.88	4.236
227.72	4.228
228.47	4.223
229.39	4.219
230.16	4.217
231.06	4.216
231.85	4.215
232.72	4.216
233.58	4.216
234.45	4.219
235.25	4.224
236.09	4.231
236.92	4.24
237.76	4.25
238.6	4.263
239.44	4.282
240.27	4.304
241.11	4.322
241.95	4.348
242.79	4.371
243.62	4.393
244.46	4.412
245.3	4.429
246.13	4.444
246.97	4.459
247.81	4.469
248.65	4.483
249.48	4.483
250.32	4.481
251.16	4.474
252	4.459
252.83	4.442
253.67	4.418
254.51	4.386
255.34	4.353
256.18	4.305
257.02	4.26
257.86	4.208
258.69	4.122
259.53	4.02
260.37	3.921
261.21	3.836
262.04	3.779
262.88	3.723
263.72	3.69
264.55	3.658
265.39	3.634
266.23	3.621
267.07	3.614
267.9	3.615
268.74	3.619
269.58	3.627
270.42	3.642
271.25	3.659
272.09	3.676
272.93	3.691
273.76	3.708
274.61	3.724
275.44	3.739
276.28	3.754
277.11	3.769
277.95	3.782
278.79	3.796
279.63	3.809
280.46	3.821
281.3	3.835
281.96	3.845
282.85	3.857
283.81	3.867
284.65	3.875
285.49	3.884
286.32	3.892
287.16	3.899
288	3.906
288.77	3.91
289.67	3.916
290.46	3.92
291.25	3.923
292.01	3.925
292.94	3.928
293.86	3.928
294.74	3.924
295.53	3.921
296.37	3.914
297.21	3.907
298.04	3.901
298.88	3.894
299.72	3.882
300.55	3.871
301.39	3.855
302.23	3.842
303.07	3.825
303.91	3.808
304.74	3.791
305.58	3.774
306.42	3.757
307.25	3.737
308.09	3.712
308.93	3.695
309.77	3.671
310.6	3.646
311.44	3.619
312.3	3.586
313.06	3.559
313.91	3.524
314.87	3.482
315.68	3.443
316.59	3.404
317.3	3.373
318.14	3.329
318.98	3.27
319.81	3.185
320.65	3.116
