Uv/Vis Spectrum: 2-Propylthiophene
Formula: C7H10S
CAS: 1551-27-5
Boiling point: 158
Instrument: unknown
Origin: INSTITUTE OF ENERGY PROBLEMS OF CHEMICAL PHYSICS, RAS
Wavelength (nm)	Logarithm epsilon
215.23	3.589
216.57	3.623
217.74	3.657
218.91	3.692
220.08	3.733
221.42	3.76
222.76	3.788
223.93	3.822
225.27	3.849
226.61	3.877
227.95	3.904
229.46	3.918
231.3	3.931
231.46	3.931
231.63	3.931
231.8	3.931
231.97	3.938
232.13	3.938
232.3	3.938
232.47	3.938
232.64	3.945
232.8	3.938
232.97	3.938
233.14	3.945
233.31	3.945
233.47	3.945
233.64	3.945
233.81	3.945
233.97	3.952
234.14	3.952
234.31	3.952
234.48	3.952
234.64	3.952
234.81	3.952
234.98	3.959
235.15	3.959
235.31	3.959
235.48	3.959
235.65	3.966
235.82	3.966
235.98	3.966
236.15	3.966
236.32	3.966
236.49	3.966
236.65	3.959
236.82	3.959
236.99	3.959
237.15	3.959
237.32	3.952
237.49	3.952
237.66	3.952
237.82	3.952
237.99	3.945
238.16	3.945
238.33	3.945
238.49	3.945
238.66	3.945
238.83	3.945
239	3.945
239.16	3.945
239.33	3.945
239.5	3.945
239.67	3.945
239.83	3.945
240	3.945
240.17	3.938
240.33	3.938
240.5	3.938
240.67	3.931
242.51	3.897
243.85	3.863
246.53	3.726
246.69	3.719
246.86	3.712
247.03	3.705
247.2	3.699
247.36	3.692
247.53	3.685
247.7	3.678
248.03	3.664
248.54	3.637
249.04	3.603
249.54	3.568
250.04	3.534
250.54	3.5
251.05	3.466
251.55	3.424
252.05	3.37
252.55	3.308
253.05	3.267
253.56	3.205
254.06	3.143
254.56	3.082
255.06	3.013
255.53	2.94
256.07	2.842
256.57	2.773
257.07	2.691
257.57	2.582
258.04	2.479
258.58	2.349
259.08	2.205
259.58	2.061
260.08	1.855
260.49	1.641
260.88	1.449
261.48	1.216
262.09	1.012
262.59	0.896
263.1	0.793
263.6	0.69
264.1	0.601
264.6	0.54
265.1	0.485
265.61	0.43
266.11	0.396
266.61	0.361
267.11	0.32
267.62	0.279
268.12	0.252
268.62	0.218
269.12	0.204
269.62	0.176
270.13	0.149
270.63	0.142
271.13	0.122
271.63	0.115
272.13	0.101
272.64	0.081
273.14	0.074
273.64	0.067
274.14	0.06
274.64	0.053
