Uv/Vis Spectrum: 1,2,4,5-Tetrazine, 3,6-dimethyl-
Formula: C4H6N4
CAS: 1558-23-2
Melting point: 67.5-68.5
Instrument: Cary 14
Origin: INSTITUTE OF ENERGY PROBLEMS OF CHEMICAL PHYSICS, RAS
Wavelength (nm)	Logarithm epsilon
484.15	2.045
485.52	2.065
487.45	2.1
489.03	2.126
489.64	2.138
490.24	2.149
490.85	2.161
491.29	2.165
492.07	2.172
492.68	2.183
493.29	2.194
493.9	2.204
494.51	2.214
495.25	2.225
495.73	2.234
496.22	2.244
496.95	2.252
497.54	2.259
498.26	2.267
498.74	2.273
499.39	2.279
499.94	2.284
500.54	2.291
501.22	2.296
501.83	2.304
502.44	2.312
502.94	2.319
503.54	2.33
504.15	2.339
504.75	2.348
505.45	2.36
506.1	2.372
506.71	2.385
507.32	2.399
507.93	2.405
508.72	2.413
509.33	2.418
510.07	2.423
510.57	2.427
510.98	2.43
511.59	2.436
512.2	2.442
512.68	2.447
513.28	2.453
514	2.459
514.48	2.464
515.08	2.472
515.85	2.482
516.46	2.492
517.07	2.497
517.68	2.503
518.29	2.508
518.89	2.515
519.51	2.523
520.24	2.536
520.73	2.547
521.34	2.56
521.95	2.574
522.56	2.578
523.17	2.578
523.78	2.574
524.39	2.569
525	2.565
525.61	2.565
526.22	2.569
526.83	2.569
527.44	2.574
528.05	2.578
528.61	2.586
529.21	2.593
529.88	2.603
530.49	2.611
531.1	2.619
531.74	2.627
532.34	2.635
532.93	2.642
533.54	2.653
534.15	2.668
534.76	2.681
535.37	2.685
535.98	2.685
536.59	2.681
537.2	2.674
537.81	2.668
538.42	2.657
539.03	2.638
539.64	2.635
540.25	2.635
540.85	2.635
541.46	2.635
542.07	2.638
542.68	2.642
543.27	2.649
543.9	2.657
544.35	2.671
544.71	2.687
545.12	2.701
545.55	2.718
545.91	2.732
546.34	2.742
546.95	2.745
547.56	2.745
548.17	2.742
548.68	2.735
549.39	2.717
550	2.708
550.61	2.695
551.22	2.685
551.83	2.671
552.44	2.664
553.05	2.657
553.66	2.631
554.27	2.623
554.88	2.619
555.49	2.619
556.1	2.619
556.71	2.623
557.32	2.627
557.93	2.631
558.54	2.638
559.01	2.65
559.76	2.668
560.37	2.688
560.57	2.711
560.98	2.736
561.17	2.754
561.53	2.772
562.2	2.787
562.85	2.788
563.21	2.78
563.45	2.766
563.69	2.746
563.81	2.724
564.03	2.701
564.41	2.672
564.78	2.64
565.25	2.611
565.85	2.582
566.46	2.556
567.07	2.528
567.66	2.504
568.14	2.487
568.9	2.465
569.34	2.453
570.12	2.43
570.73	2.411
571.34	2.405
571.95	2.411
572.7	2.432
573.31	2.444
573.78	2.459
574.39	2.473
574.99	2.49
575.47	2.506
576.07	2.524
576.67	2.553
577.44	2.591
578.05	2.638
578.59	2.666
578.83	2.675
579.27	2.681
579.91	2.678
580.15	2.669
580.75	2.612
581.1	2.574
581.6	2.533
582.08	2.503
582.56	2.478
583.54	2.442
584.15	2.418
584.84	2.378
585.37	2.335
586.28	2.207
586.65	2.166
587.2	2.113
587.81	2.074
588.3	2.038
588.73	2.009
589.3	1.964
589.76	1.923
590.25	1.887
590.83	1.849
591.16	1.832
591.99	1.801
592.42	1.79
593.02	1.78
593.9	1.765
594.46	1.758
595.06	1.75
595.73	1.736
596.38	1.723
596.95	1.705
597.59	1.689
598.17	1.671
598.79	1.656
599.39	1.635
599.87	1.619
600.58	1.587
601.22	1.552
601.83	1.503
602.44	1.448
603.05	1.386
603.66	1.313
604.27	1.225
604.59	1.176
605	1.104
605.63	0.974
606.34	0.75
607.32	0.231
