Uv/Vis Spectrum: Pyrimidine, 4,6-dimethyl-
Formula: C6H8N2
CAS: 1558-17-4
Boiling point: 159-160
Instrument: SF-16
Origin: INSTITUTE OF ENERGY PROBLEMS OF CHEMICAL PHYSICS, RAS
Wavelength (nm)	Logarithm epsilon
205.3	3.538
205.78	3.533
207.23	3.464
209.16	3.413
211.09	3.343
213.02	3.279
214.94	3.177
216.87	3.094
218.8	3.034
220.73	2.974
222.66	2.964
224.59	2.987
226.51	3.048
228.44	3.094
230.37	3.163
232.3	3.232
234.23	3.32
236.16	3.385
238.08	3.431
240.01	3.491
241.94	3.528
243.87	3.565
245.8	3.565
247.73	3.547
249.65	3.496
251.58	3.431
253.51	3.293
255.44	3.154
257.37	3.015
259.29	2.895
261.22	2.83
263.15	2.789
265.08	2.742
267.01	2.71
268.94	2.668
270.86	2.631
272.79	2.604
274.72	2.576
276.65	2.539
