Uv/Vis Spectrum: cis-1,2-Dichloroethylene
Formula: C2H2Cl2
CAS: 156-59-2
Boiling point: 60
Instrument: Zeis PMQ II
Origin: INSTITUTE OF ENERGY PROBLEMS OF CHEMICAL PHYSICS, RAS
Wavelength (nm)	Logarithm epsilon
183.39	3.785
183.47	3.787
183.54	3.79
183.61	3.792
183.68	3.794
183.76	3.796
183.83	3.798
183.9	3.8
183.97	3.802
184.05	3.805
184.12	3.805
184.48	3.819
184.85	3.839
185.22	3.851
185.59	3.871
185.96	3.883
186.33	3.9
186.71	3.913
187.08	3.93
187.46	3.941
187.84	3.952
188.22	3.962
188.6	3.973
188.98	3.984
189.36	3.992
189.75	4.003
190.14	4.011
190.53	4.022
190.92	4.026
191.31	4.033
191.7	4.037
192.1	4.041
192.5	4.043
192.9	4.043
193.3	4.041
193.7	4.041
194.1	4.035
194.51	4.03
194.92	4.022
195.33	4.013
195.74	4.003
196.15	3.992
196.56	3.981
196.98	3.971
197.4	3.958
197.82	3.941
198.24	3.924
198.66	3.909
199.09	3.896
199.51	3.883
199.94	3.864
200.37	3.854
200.8	3.841
201.24	3.828
201.67	3.815
202.11	3.802
202.55	3.792
202.99	3.779
203.44	3.768
203.88	3.756
204.33	3.745
204.78	3.732
205.23	3.721
205.68	3.707
206.14	3.696
206.6	3.683
207.06	3.666
207.52	3.645
207.98	3.626
208.45	3.604
208.92	3.585
209.39	3.564
209.86	3.545
210.33	3.521
210.81	3.498
211.29	3.468
211.77	3.444
212.25	3.417
212.74	3.393
213.22	3.366
213.71	3.331
214.21	3.299
214.7	3.27
215.2	3.238
215.69	3.197
216.2	3.165
216.7	3.131
217.2	3.095
217.71	3.044
218.22	3.005
218.74	2.961
219.25	2.91
219.77	2.869
220.29	2.829
220.81	2.78
221.34	2.737
221.86	2.692
222.39	2.628
222.93	2.581
223.46	2.53
224	2.468
224.54	2.417
225.08	2.353
225.63	2.302
226.18	2.251
226.73	2.187
227.28	2.138
227.84	2.068
228.4	2.015
228.96	1.955
229.52	1.885
230.05	1.812
230.66	1.725
231.23	1.635
231.81	1.561
232.39	1.478
232.97	1.405
233.55	1.334
233.91	1.288
234.31	1.244
234.93	1.18
235.52	1.121
