Uv/Vis Spectrum: Benzenamine, 4-ethoxy-
Formula: C8H11NO
CAS: 156-43-4
Boiling point: 248.0
Instrument: Unicam SP 800 B
Origin: INSTITUTE OF ENERGY PROBLEMS OF CHEMICAL PHYSICS, RAS
Wavelength (nm)	Logarithm epsilon
200.34	3.431
200.85	3.461
201.19	3.492
201.53	3.522
202.05	3.553
202.56	3.58
203.07	3.611
203.58	3.638
204.09	3.665
204.94	3.689
206.31	3.703
207.67	3.689
208.69	3.669
209.37	3.642
210.23	3.618
210.91	3.591
211.93	3.567
212.78	3.543
213.8	3.519
215.17	3.502
216.53	3.512
217.72	3.529
218.75	3.55
219.77	3.573
220.62	3.597
221.64	3.621
222.5	3.648
223.35	3.676
224.03	3.703
224.71	3.73
225.73	3.754
226.41	3.781
227.44	3.805
228.29	3.832
229.14	3.859
230.16	3.88
231.02	3.904
232.04	3.928
233.23	3.945
234.42	3.962
235.79	3.972
237.32	3.979
238.86	3.972
240.22	3.958
241.41	3.941
242.43	3.921
243.29	3.897
244.31	3.873
245.16	3.846
246.01	3.822
246.86	3.795
247.55	3.768
248.23	3.74
248.74	3.713
249.42	3.686
249.93	3.659
250.44	3.631
250.95	3.604
251.47	3.577
252.15	3.55
252.66	3.522
253.17	3.495
253.68	3.468
254.19	3.441
254.7	3.413
255.22	3.386
255.73	3.359
256.24	3.332
256.75	3.301
257.09	3.27
257.6	3.243
258.11	3.213
258.45	3.182
258.96	3.155
259.48	3.128
259.99	3.1
260.5	3.073
260.67	3.042
261.18	3.015
261.69	2.985
262.03	2.954
262.37	2.923
262.88	2.896
263.4	2.869
263.91	2.842
264.42	2.814
265.1	2.787
265.78	2.76
266.8	2.736
267.83	2.716
269.19	2.699
270.72	2.702
271.92	2.719
273.11	2.736
274.13	2.76
274.98	2.784
275.84	2.807
276.52	2.835
277.37	2.859
278.05	2.886
278.9	2.913
279.41	2.94
280.27	2.964
281.12	2.991
281.97	3.015
282.82	3.042
283.85	3.066
284.87	3.09
285.89	3.114
286.91	3.134
287.94	3.155
288.96	3.179
290.15	3.199
291.34	3.216
292.54	3.236
293.9	3.253
295.09	3.27
296.46	3.281
297.99	3.291
299.35	3.301
300.89	3.301
302.42	3.301
303.95	3.298
305.49	3.288
307.02	3.277
308.39	3.26
309.75	3.243
310.94	3.226
312.14	3.206
312.99	3.182
314.18	3.162
315.03	3.138
315.88	3.114
316.74	3.09
317.59	3.063
318.27	3.036
318.95	3.008
319.63	2.981
320.32	2.954
321	2.927
321.51	2.899
322.19	2.872
322.7	2.845
323.04	2.814
323.55	2.787
324.06	2.76
324.41	2.729
325.09	2.702
325.6	2.671
326.11	2.644
326.62	2.617
326.96	2.586
327.47	2.559
327.98	2.532
328.5	2.504
329.01	2.474
329.35	2.443
329.86	2.416
330.2	2.385
330.37	2.355
330.71	2.324
331.05	2.293
331.39	2.263
331.73	2.232
332.24	2.205
332.76	2.178
333.27	2.15
334.12	2.123
334.8	2.096
335.48	2.069
336.16	2.041
336.68	2.014
337.19	1.987
337.7	1.956
338.04	1.926
339.91	1.681
340.08	1.681
340.77	1.606
341.62	1.524
342.47	1.442
343.32	1.378
344.17	1.309
345.03	1.255
345.88	1.177
346.73	1.126
