Uv/Vis Spectrum: Diazene, bis(4-methoxyphenyl)-, 1-oxide
Formula: C14H14N2O3
CAS: 1562-94-3
Melting point: 117.5
Instrument: Beckman DK 2
Origin: INSTITUTE OF ENERGY PROBLEMS OF CHEMICAL PHYSICS, RAS
Wavelength (nm)	Logarithm epsilon
194.02	4.419
194.35	4.436
194.59	4.453
194.91	4.47
195.32	4.487
195.73	4.504
196.3	4.515
197.04	4.517
197.71	4.506
198.3	4.493
198.72	4.478
199.22	4.464
199.73	4.449
200.07	4.432
200.5	4.417
200.93	4.4
201.37	4.385
201.71	4.368
202.06	4.351
202.5	4.334
202.94	4.317
203.38	4.303
203.64	4.286
204.09	4.271
204.53	4.254
204.89	4.237
205.34	4.222
205.52	4.203
205.97	4.188
206.33	4.171
206.79	4.154
207.16	4.137
207.52	4.12
207.98	4.103
208.35	4.086
208.63	4.069
209.1	4.055
209.47	4.038
209.94	4.023
210.32	4.006
210.89	3.991
211.36	3.974
211.84	3.959
212.32	3.944
212.81	3.929
213.39	3.917
214.07	3.906
214.86	3.898
215.75	3.896
216.64	3.896
217.55	3.898
218.36	3.904
219.28	3.906
220.11	3.915
220.94	3.921
221.78	3.927
222.72	3.932
223.68	3.934
224.65	3.936
225.51	3.942
226.39	3.949
227.27	3.957
228.15	3.965
229.04	3.972
230.06	3.978
230.96	3.987
231.88	3.993
232.92	3.993
233.96	3.995
235.02	3.995
236.09	3.995
237.04	4.004
238.01	4.012
239.1	4.014
240.21	4.018
241.32	4.021
242.44	4.023
243.58	4.023
244.73	4.016
245.88	4.01
246.92	4.004
247.83	3.993
248.76	3.982
249.68	3.97
250.49	3.957
251.29	3.944
252.1	3.929
252.78	3.915
253.47	3.9
254.29	3.885
254.99	3.868
255.68	3.853
256.38	3.836
257.09	3.819
257.79	3.804
258.36	3.787
258.94	3.77
259.51	3.753
260.23	3.739
260.81	3.722
261.68	3.707
262.42	3.69
263.3	3.675
264.49	3.664
265.69	3.656
267.06	3.658
268.44	3.662
269.83	3.669
271.08	3.677
272.34	3.686
273.45	3.696
274.74	3.707
276.03	3.717
277.18	3.728
278.33	3.739
279.66	3.747
280.83	3.758
282.02	3.768
283.21	3.779
284.59	3.787
285.8	3.798
287.03	3.809
288.44	3.817
289.87	3.826
291.5	3.828
292.96	3.836
294.43	3.845
295.92	3.851
297.42	3.859
298.94	3.868
300.28	3.879
301.64	3.889
303.2	3.898
304.58	3.91
305.97	3.921
307.38	3.934
308.59	3.949
310.02	3.961
311.26	3.976
312.3	3.991
313.55	4.006
314.61	4.023
315.67	4.04
316.74	4.055
317.81	4.069
319.11	4.084
320.2	4.101
321.08	4.118
322.18	4.133
323.52	4.148
324.64	4.165
326	4.18
327.14	4.194
328.51	4.207
329.67	4.222
331.07	4.235
332.48	4.25
333.9	4.262
335.34	4.275
336.78	4.288
338.49	4.3
339.96	4.315
341.7	4.326
343.45	4.336
345.48	4.347
347.53	4.356
349.87	4.36
351.97	4.366
354.1	4.372
356.53	4.377
358.99	4.377
361.48	4.372
363.73	4.366
366	4.356
367.73	4.343
369.18	4.328
370.93	4.313
372.7	4.3
373.89	4.283
375.39	4.269
376.6	4.252
379.65	4.203
379.96	4.199
380.27	4.197
381.51	4.177
383.38	4.146
385.28	4.108
387.19	4.063
389.12	4.012
391.07	3.957
393.04	3.883
395.03	3.813
397.04	3.722
399.07	3.639
401.12	3.525
403.19	3.419
405.28	3.289
407.4	3.141
