Uv/Vis Spectrum: Benzenamine, 4-nitroso-N-phenyl-
Formula: C12H10N2O
CAS: 156-10-5
Instrument: Varian 635
Origin: INSTITUTE OF ENERGY PROBLEMS OF CHEMICAL PHYSICS, RAS
Wavelength (nm)	Logarithm epsilon
284.54	3.755
287.94	3.711
290.78	3.654
295.32	3.607
300.42	3.587
305.53	3.577
310.64	3.544
315.74	3.533
320.85	3.509
325.95	3.471
330.49	3.414
335.03	3.33
339.57	3.249
344.67	3.202
349.78	3.176
354.89	3.202
358.86	3.311
362.83	3.398
366.8	3.484
369.64	3.566
372.47	3.645
374.74	3.711
376.44	3.769
378.71	3.819
380.98	3.865
383.82	3.906
386.09	3.944
388.36	3.978
390.06	4.014
391.76	4.047
393.46	4.078
395.17	4.107
396.87	4.134
398	4.159
399.7	4.183
400.84	4.206
402.54	4.227
404.24	4.248
405.38	4.268
407.08	4.286
408.21	4.304
409.35	4.322
410.48	4.338
411.62	4.354
413.32	4.37
414.45	4.385
415.59	4.399
416.72	4.413
418.99	4.425
420.13	4.438
421.26	4.451
422.96	4.464
424.67	4.476
426.37	4.487
428.07	4.499
430.34	4.509
432.04	4.52
434.88	4.528
439.98	4.53
445.09	4.528
450.19	4.52
450.76	4.517
451.33	4.516
451.9	4.514
452.46	4.511
453.03	4.51
453.6	4.507
454.17	4.506
454.73	4.504
455.3	4.503
457	4.492
459.27	4.48
461.54	4.465
463.81	4.446
466.08	4.428
468.35	4.401
470.62	4.375
472.89	4.353
475.16	4.322
477.43	4.293
479.7	4.259
481.96	4.218
484.23	4.183
486.5	4.145
488.77	4.113
491.04	4.071
493.31	4.033
495.58	3.986
497.85	3.944
500.12	3.886
502.39	3.831
504.66	3.788
506.93	3.734
509.2	3.687
511.46	3.636
513.73	3.566
516	3.509
518.27	3.443
520.54	3.382
522.97	3.322
525.08	3.271
527.08	3.209
529.14	3.14
531.88	3.049
534.17	2.974
536.45	2.893
538.39	2.817
539.54	2.769
542.16	2.681
545.42	2.563
547.34	2.482
550.04	2.356
552.31	2.133
