Uv/Vis Spectrum: 4-Pyridinecarboxylic acid, ethyl ester
Formula: C8H9NO2
CAS: 1570-45-2
Melting point: liq
Instrument: Beckman DU
Origin: INSTITUTE OF ENERGY PROBLEMS OF CHEMICAL PHYSICS, RAS
Wavelength (nm)	Logarithm epsilon
209.39	3.928
210.89	3.934
212.4	3.934
213.91	3.931
215.25	3.917
216.59	3.9
217.43	3.877
218.27	3.853
218.77	3.826
219.27	3.799
219.78	3.772
220.61	3.745
221.28	3.718
221.79	3.691
222.29	3.664
222.79	3.637
223.3	3.609
223.63	3.579
224.13	3.552
224.47	3.522
224.8	3.491
225.14	3.461
225.47	3.43
225.64	3.4
225.98	3.369
226.31	3.339
226.48	3.308
226.82	3.278
226.98	3.247
227.15	3.217
227.32	3.187
227.49	3.156
227.65	3.126
227.82	3.095
228.13	3.066
228.49	3.038
228.83	3.007
229.26	2.972
229.66	2.946
230	2.916
230.5	2.889
231.01	2.862
231.51	2.835
232.1	2.805
232.68	2.781
233.69	2.757
235.03	2.74
236.54	2.75
237.88	2.76
239.05	2.777
240.22	2.798
241.4	2.818
242.4	2.838
243.41	2.858
244.41	2.882
245.42	2.906
246.42	2.929
247.26	2.953
248.27	2.973
249.11	3
249.94	3.028
250.78	3.051
251.79	3.075
252.63	3.099
253.63	3.122
254.8	3.143
255.81	3.166
256.82	3.187
257.82	3.207
258.99	3.224
260.17	3.244
261.17	3.264
262.35	3.281
263.52	3.298
264.69	3.315
266.03	3.325
267.37	3.335
268.72	3.349
270.06	3.363
271.56	3.366
273.07	3.373
274.58	3.379
276.09	3.369
277.6	3.366
279.11	3.359
280.45	3.346
281.79	3.329
282.96	3.312
283.97	3.291
284.97	3.268
285.98	3.244
286.82	3.217
287.82	3.197
288.49	3.17
289.33	3.146
289.83	3.116
290.5	3.088
291.17	3.061
291.51	3.031
292.01	3.004
292.51	2.977
293.02	2.946
293.35	2.916
293.85	2.889
294.19	2.858
294.69	2.828
295.03	2.798
295.2	2.767
295.53	2.737
295.87	2.706
296.03	2.676
296.37	2.645
296.7	2.615
297.04	2.584
297.37	2.554
297.54	2.523
297.88	2.493
298.21	2.463
298.55	2.432
298.88	2.402
299.05	2.371
299.55	2.341
299.89	2.31
300.22	2.28
300.56	2.249
300.89	2.219
301.23	2.189
301.56	2.158
301.9	2.128
302.23	2.097
302.57	2.067
302.91	2.036
303.24	2.006
303.74	1.975
304.08	1.945
304.41	1.914
304.75	1.884
305.08	1.854
305.59	1.827
305.92	1.796
306.26	1.766
306.59	1.735
307.09	1.705
307.43	1.674
307.77	1.644
308.27	1.613
308.6	1.583
309.11	1.552
309.44	1.522
309.78	1.492
310.12	1.464
310.45	1.434
310.95	1.404
311.45	1.377
311.79	1.346
312.29	1.316
312.63	1.285
313.13	1.258
313.46	1.228
313.97	1.201
314.3	1.17
314.8	1.143
315.31	1.113
315.64	1.082
315.98	1.052
316.48	1.025
316.82	0.994
317.32	0.967
317.65	0.937
318.16	0.91
318.66	0.883
318.99	0.852
319.33	0.822
319.66	0.791
319.98	0.762
320.34	0.734
320.67	0.703
321.01	0.673
321.45	0.643
321.84	0.615
322.18	0.585
322.51	0.554
322.85	0.524
323.18	0.494
323.52	0.463
323.85	0.433
324.02	0.402
324.53	0.372
324.86	0.341
325.03	0.311
