Uv/Vis Spectrum: (E)-2-phenyl-4-(phenylmethylene)-5(4H)-oxazolone
Formula: C16H11NO2
CAS: 15732-43-1
Melting point: 165-166
Instrument: Cary 15
Origin: INSTITUTE OF ENERGY PROBLEMS OF CHEMICAL PHYSICS, RAS
Wavelength (nm)	Logarithm epsilon
210.407	4.085
211.407	4.053
212.407	4.028
213.407	4.009
214.407	3.997
215.407	3.988
216.407	3.984
217.407	3.983
218.407	3.984
219.407	3.987
220.407	3.991
221.407	3.995
222.407	4.001
223.407	4.006
224.407	4.012
225.407	4.018
226.407	4.024
227.407	4.031
228.407	4.038
229.407	4.046
230.407	4.055
231.407	4.065
232.407	4.075
233.407	4.087
234.407	4.099
235.407	4.11
236.407	4.12
237.407	4.127
238.415	4.138
239.376	4.139
240.338	4.138
241.3	4.132
242.262	4.132
243.224	4.138
244.185	4.152
245.161	4.161
246.073	4.167
246.984	4.164
248.033	4.156
248.994	4.153
249.847	4.152
250.918	4.152
251.88	4.154
252.972	4.158
253.803	4.165
254.765	4.17
255.727	4.179
256.689	4.183
257.651	4.188
258.612	4.187
259.574	4.183
260.536	4.166
261.302	4.146
262.083	4.123
262.864	4.096
263.448	4.07
264.448	4.024
265.448	3.975
266.448	3.925
267.448	3.875
268.448	3.827
269.448	3.78
270.448	3.737
271.448	3.697
272.448	3.662
273.448	3.63
274.448	3.603
275.448	3.579
276.448	3.56
277.448	3.544
278.448	3.532
279.448	3.524
280.448	3.518
281.448	3.515
282.448	3.515
283.448	3.517
284.448	3.52
285.448	3.525
286.448	3.532
287.448	3.54
288.448	3.549
289.448	3.559
290.448	3.569
291.448	3.581
292.448	3.594
293.448	3.607
294.448	3.621
295.448	3.636
296.448	3.651
297.448	3.668
298.448	3.684
299.448	3.701
300.448	3.718
301.877	3.743
302.877	3.763
303.877	3.783
304.877	3.803
305.877	3.822
306.877	3.841
307.877	3.86
308.877	3.879
309.877	3.898
310.877	3.917
311.877	3.936
312.877	3.955
313.877	3.974
314.877	3.993
315.877	4.013
316.877	4.032
317.877	4.052
318.877	4.071
319.877	4.091
320.877	4.111
321.877	4.131
322.877	4.15
323.877	4.17
324.877	4.189
325.877	4.208
326.877	4.226
327.877	4.244
328.877	4.261
329.877	4.277
330.877	4.293
331.877	4.307
332.877	4.322
333.877	4.335
334.877	4.348
335.826	4.361
336.826	4.372
337.826	4.383
338.826	4.397
339.826	4.414
340.826	4.433
341.826	4.453
342.826	4.471
343.826	4.486
344.826	4.496
345.826	4.501
346.826	4.5
347.826	4.497
348.828	4.49
349.901	4.49
351.333	4.493
352.406	4.496
353.48	4.499
354.151	4.509
355.113	4.521
356.223	4.533
357.223	4.549
358.223	4.562
359.223	4.575
360.223	4.587
361.223	4.596
362.223	4.6
363.223	4.598
364.223	4.587
365.169	4.57
366.169	4.543
367.169	4.522
368.169	4.505
369.169	4.489
370.169	4.474
371.169	4.46
372.169	4.446
373.169	4.433
374.169	4.423
375.169	4.416
376.169	4.413
377.169	4.418
378.051	4.428
379.051	4.437
380.051	4.445
381.051	4.45
382.051	4.449
383.051	4.437
384.106	4.404
385.106	4.333
386.106	4.249
387.106	4.157
388.106	4.063
389.106	3.969
390.106	3.875
391.106	3.781
392.106	3.683
393.106	3.578
394.106	3.464
395.106	3.336
396.106	3.193
397.106	3.034
398.106	2.859
399.106	2.67
