Uv/Vis Spectrum: cis-1,3-Pentadiene
Formula: C5H8
CAS: 1574-41-0
Boiling point: 44
Instrument: SF-4
Origin: INSTITUTE OF ENERGY PROBLEMS OF CHEMICAL PHYSICS, RAS
Wavelength (nm)	Logarithm epsilon
216.02	4.086
216.1	4.087
216.19	4.089
216.27	4.09
216.36	4.091
216.44	4.091
216.53	4.092
216.61	4.093
216.69	4.094
217.03	4.102
217.37	4.107
217.71	4.113
218.05	4.118
218.39	4.125
218.73	4.13
219.07	4.134
219.41	4.141
219.75	4.144
220.08	4.149
220.42	4.154
220.76	4.159
221.1	4.163
221.44	4.167
221.78	4.171
222.12	4.175
222.46	4.18
222.8	4.184
223.14	4.188
223.47	4.192
223.81	4.196
224.15	4.2
224.49	4.203
224.83	4.204
225.17	4.202
225.51	4.198
225.85	4.195
226.19	4.191
226.53	4.186
226.86	4.183
227.2	4.177
227.54	4.171
227.88	4.166
228.22	4.16
228.56	4.155
228.9	4.149
229.24	4.143
229.58	4.14
229.92	4.132
230.25	4.126
230.59	4.119
230.93	4.111
231.27	4.104
231.61	4.095
231.95	4.086
232.29	4.076
232.63	4.066
232.97	4.051
233.31	4.042
233.63	4.025
233.99	3.999
234.33	3.967
234.7	3.927
235	3.894
235.34	3.841
235.68	3.772
236.02	3.717
236.36	3.653
236.69	3.605
237.03	3.559
237.37	3.508
237.71	3.444
238.05	3.402
238.39	3.349
238.73	3.307
