Uv/Vis Spectrum: Anthracene, decafluoro-
Formula: C14F10
CAS: 1580-19-4
Melting point: 208.0-208.5
Instrument: SF-16
Origin: INSTITUTE OF ENERGY PROBLEMS OF CHEMICAL PHYSICS, RAS
Wavelength (nm)	Logarithm epsilon
201.49	3.645
201.98	3.655
202.48	3.665
202.97	3.675
203.47	3.685
204.46	3.714
205.94	3.764
207.43	3.818
208.92	3.877
210.4	3.926
211.89	3.975
213.37	4.014
214.86	4.044
216.35	4.064
217.83	4.083
219.32	4.103
220.8	4.123
222.29	4.142
223.78	4.172
225.26	4.196
226.75	4.226
228.23	4.275
229.72	4.319
231.21	4.408
232.69	4.467
234.18	4.536
235.66	4.624
237.15	4.679
238.64	4.742
240.12	4.792
241.61	4.865
243.09	4.925
244.58	4.959
246.07	4.998
247.55	5.023
249.04	5.038
250.53	5.013
252.01	4.846
253.5	4.703
254.98	4.595
256.47	4.433
257.96	4.344
259.44	4.187
260.93	4.014
262.41	3.842
263.9	3.67
265.39	3.572
266.87	3.473
268.36	3.365
269.84	3.296
271.33	3.242
272.82	3.183
274.3	3.124
275.79	3.08
277.27	3.035
278.76	2.996
280.25	2.962
281.73	2.922
283.22	2.888
284.7	2.863
287.68	2.799
289.16	2.78
290.65	2.775
292.13	2.765
293.62	2.76
298.08	2.785
299.56	2.804
301.05	2.824
302.54	2.848
304.02	2.868
305.51	2.903
306.99	2.932
308.48	2.962
309.97	2.991
311.45	3.016
312.94	3.05
314.42	3.085
315.91	3.109
317.4	3.149
318.88	3.178
320.37	3.203
321.85	3.227
323.34	3.252
324.83	3.281
326.31	3.311
327.8	3.336
329.28	3.365
330.77	3.409
332.26	3.434
333.74	3.468
335.23	3.498
336.71	3.527
338.2	3.552
339.69	3.577
341.17	3.606
342.66	3.645
344.15	3.685
347.12	3.754
348.6	3.768
350.09	3.793
351.58	3.818
353.06	3.837
354.55	3.872
356.03	3.882
357.52	3.882
359.01	3.862
360.49	3.857
361.98	3.862
363.46	3.886
364.95	3.911
366.44	3.936
367.92	3.965
369.41	3.99
370.89	4.014
372.38	4.034
375.35	4.044
376.84	3.965
378.32	3.872
379.81	3.827
381.3	3.773
382.78	3.759
384.27	3.744
385.75	3.734
387.24	3.729
388.73	3.719
390.21	3.695
391.7	3.626
393.18	3.527
394.67	3.414
396.16	3.35
397.64	3.178
399.13	3.035
403.59	2.725
