Uv/Vis Spectrum: N-Chlorodimethylamine
Formula: C2H6ClN
CAS: 1585-74-6
Boiling point: 46
Instrument: Beckman DU
Origin: INSTITUTE OF ENERGY PROBLEMS OF CHEMICAL PHYSICS, RAS
Wavelength (nm)	Logarithm epsilon
205.29	2.074
205.44	2.073
205.58	2.073
205.73	2.071
205.87	2.069
206.02	2.069
206.16	2.067
206.31	2.066
206.45	2.062
207.03	2.059
207.61	2.055
208.19	2.049
208.77	2.046
209.35	2.044
209.93	2.04
210.51	2.036
211.09	2.035
211.67	2.033
212.25	2.033
212.83	2.031
213.41	2.031
213.99	2.029
214.57	2.029
215.15	2.031
215.73	2.033
216.31	2.035
216.89	2.04
217.47	2.044
218.06	2.051
218.64	2.06
219.22	2.071
219.8	2.083
220.38	2.093
220.96	2.106
221.54	2.119
222.12	2.13
222.7	2.143
223.28	2.156
223.86	2.17
224.44	2.184
225.02	2.196
225.6	2.209
226.18	2.218
226.76	2.23
227.34	2.242
227.92	2.254
228.5	2.267
229.08	2.278
229.66	2.286
230.24	2.3
230.82	2.309
231.4	2.319
231.98	2.329
232.56	2.338
233.14	2.35
233.72	2.362
234.3	2.372
234.88	2.384
235.46	2.392
236.04	2.402
236.62	2.412
237.2	2.419
237.78	2.43
238.36	2.437
238.94	2.446
239.52	2.454
240.1	2.461
240.68	2.468
241.26	2.477
241.84	2.484
242.42	2.491
243.01	2.498
243.59	2.503
244.17	2.51
244.75	2.515
245.33	2.52
245.91	2.525
246.49	2.53
247.07	2.536
247.65	2.54
248.23	2.544
248.81	2.547
249.39	2.55
249.97	2.552
250.55	2.555
251.13	2.557
251.71	2.56
252.29	2.562
252.87	2.563
253.45	2.565
254.03	2.565
254.61	2.566
255.19	2.567
255.77	2.567
256.35	2.567
256.93	2.567
257.51	2.567
258.09	2.566
258.67	2.566
259.25	2.565
259.83	2.565
260.41	2.563
260.99	2.562
261.57	2.56
262.15	2.558
262.73	2.556
263.31	2.554
263.89	2.55
264.47	2.547
265.05	2.543
265.63	2.54
266.21	2.536
266.79	2.531
267.37	2.527
267.96	2.523
268.54	2.518
269.12	2.514
269.7	2.509
270.28	2.505
270.86	2.499
271.44	2.495
272.02	2.49
272.6	2.484
273.18	2.478
273.76	2.472
274.34	2.466
274.92	2.458
275.5	2.453
276.08	2.446
276.66	2.44
277.24	2.433
277.82	2.427
278.4	2.421
278.98	2.413
279.56	2.404
280.14	2.398
280.72	2.39
281.3	2.382
281.88	2.375
282.46	2.368
283.04	2.361
283.62	2.353
284.2	2.345
284.78	2.337
285.36	2.329
285.94	2.322
286.52	2.313
287.1	2.304
287.68	2.295
288.26	2.285
288.84	2.276
289.42	2.267
290	2.258
290.58	2.248
291.16	2.236
291.74	2.227
292.32	2.218
292.91	2.201
293.49	2.192
294.07	2.181
294.65	2.167
295.23	2.155
295.81	2.143
296.39	2.131
296.97	2.119
297.55	2.104
298.13	2.09
298.71	2.078
299.29	2.062
299.87	2.046
300.45	2.029
301.03	2.009
301.61	1.991
302.19	1.971
302.77	1.953
303.35	1.935
303.93	1.913
304.51	1.887
305.09	1.865
305.67	1.833
