Uv/Vis Spectrum: 1-Phenylcyclohexanol
Formula: C12H16O
CAS: 1589-60-2
Melting point: 63.5
Boiling point: 157(28); 112(5)
Instrument: n.i.g.
Origin: INSTITUTE OF ENERGY PROBLEMS OF CHEMICAL PHYSICS, RAS
Wavelength (nm)	Logarithm epsilon
232.669	2.11426
234.206	2.07083
235.897	2.02481
238.028	1.97952
240.885	1.93829
240.885	1.93829
242.108	1.93835
243.357	1.93842
244.62	1.93848
244.62	1.93848
247.216	1.98064
249.022	2.02353
251.031	2.0656
254.238	2.10531
254.238	2.10531
255.987	2.10459
257.75	2.10358
259.54	2.10244
259.54	2.10244
262.394	2.07126
264.869	2.03529
267.024	1.99564
268.918	1.95338
270.609	1.9096
272.156	1.86539
273.618	1.82184
275.054	1.78005
275.054	1.78005
276.23	1.73614
277.411	1.69217
278.596	1.64817
279.784	1.60412
280.975	1.56005
282.169	1.51596
283.364	1.47185
284.559	1.42773
284.559	1.42773
285.945	1.38844
287.434	1.34916
289.012	1.3099
290.664	1.27064
292.377	1.23135
294.136	1.19205
295.926	1.15271
297.734	1.11331
299.543	1.07386
301.341	1.03433
303.113	0.994722
304.844	0.955014
304.844	0.955014
305.224	0.953117
305.631	0.951085
306.051	0.948775
306.051	0.948775
307.531	0.900121
309.116	0.852541
311.075	0.804977
313.673	0.756385
313.673	0.756385
315.18	0.717163
316.654	0.677707
318.096	0.63803
319.51	0.598134
320.895	0.558024
322.255	0.517724
323.592	0.477208
324.906	0.436512
326.201	0.395641
327.478	0.354589
328.739	0.313361
329.986	0.271981
331.22	0.230449
332.445	0.18876
333.661	0.146934
333.661	0.146934
334.212	0.137132
334.964	0.10075
336.559	0.006594
336.559	0.006594
337.551	-0.015608
338.535	-0.04774
340.353	-0.117362
