Uv/Vis Spectrum: 1,4-dihydro-2,3-quinoxalinedione
Formula: C8H6N2O2
CAS: 15804-19-0
Melting point: 410
Instrument: Cary 15
Origin: INSTITUTE OF ENERGY PROBLEMS OF CHEMICAL PHYSICS, RAS
Wavelength (nm)	Logarithm epsilon
230.34	3.963
231.017	3.942
231.602	3.926
232.345	3.907
233.051	3.896
233.754	3.894
234.252	3.904
235.049	3.902
235.763	3.873
236.43	3.834
237.43	3.769
238.43	3.706
239.43	3.651
240.43	3.605
241.43	3.57
242.43	3.547
243.43	3.535
244.43	3.531
245.43	3.533
246.43	3.54
247.43	3.549
248.43	3.557
249.43	3.566
250.422	3.579
251.344	3.592
252.344	3.605
253.344	3.619
254.344	3.632
255.344	3.642
256.344	3.647
257.344	3.647
258.344	3.643
259.344	3.635
260.333	3.626
261.333	3.623
262.333	3.618
263.333	3.611
264.333	3.603
265.333	3.593
266.333	3.581
267.228	3.567
268.228	3.556
269.228	3.535
270.228	3.51
271.228	3.486
272.228	3.466
273.228	3.452
274.228	3.446
275.228	3.449
276.228	3.461
277.228	3.48
278.228	3.503
279.228	3.529
280.201	3.553
281.201	3.577
282.201	3.603
283.201	3.631
284.201	3.66
285.201	3.689
286.201	3.718
287.201	3.746
288.201	3.773
289.201	3.799
290.201	3.823
291.201	3.845
292.201	3.865
293.201	3.884
294.201	3.9
295.201	3.915
296.201	3.928
297.201	3.94
298.201	3.951
299.201	3.962
300.201	3.972
301.232	3.985
302.232	3.993
303.232	4
304.232	4.008
305.232	4.019
306.232	4.03
307.232	4.041
308.232	4.049
309.232	4.052
310.232	4.05
311.232	4.045
312.211	4.04
313.147	4.028
313.154	4.029
314.154	4.019
315.154	4.009
316.154	4.001
317.154	3.995
318.154	3.991
319.154	3.989
320.154	3.988
321.126	3.988
322.126	3.983
323.126	3.976
324.126	3.967
325.126	3.955
326.126	3.94
327.126	3.921
328.126	3.898
329.01	3.874
330.01	3.842
331.01	3.809
332.01	3.777
333.01	3.748
334.01	3.723
335.01	3.704
336.01	3.689
337.01	3.678
338.01	3.667
339.033	3.656
340.033	3.645
341.033	3.629
342.033	3.605
343.193	3.568
344.193	3.53
345.193	3.473
346.193	3.404
347.193	3.33
348.193	3.254
349.193	3.179
350.193	3.106
351.193	3.034
352.193	2.962
353.193	2.885
