Uv/Vis Spectrum: 2-Naphthalenemethanol
Formula: C11H10O
CAS: 1592-38-7
Melting point: 81
Boiling point: 178/ 12 mm
Instrument: unknown
Origin: INSTITUTE OF ENERGY PROBLEMS OF CHEMICAL PHYSICS, RAS
Wavelength (nm)	Logarithm epsilon
213.92	4.529
214.08	4.538
214.25	4.542
214.41	4.546
214.58	4.55
214.74	4.554
214.9	4.558
215.07	4.567
215.23	4.571
215.56	4.583
216.38	4.617
217.16	4.655
218.02	4.687
218.83	4.721
219.64	4.747
220.47	4.767
221.34	4.784
222.11	4.796
222.93	4.813
223.75	4.825
224.56	4.829
225.38	4.829
226.2	4.817
227.02	4.8
227.84	4.704
228.66	4.625
229.48	4.558
230.3	4.483
231.12	4.404
231.93	4.329
232.75	4.271
233.57	4.209
234.39	4.129
235.21	4.054
236.03	3.988
236.85	3.892
237.67	3.842
238.48	3.759
239.3	3.692
240.12	3.63
240.94	3.575
241.76	3.53
242.58	3.492
243.4	3.455
244.22	3.434
245.04	3.417
245.85	3.405
246.68	3.399
247.49	3.4
248.31	3.409
249.13	3.421
249.95	3.438
250.77	3.45
251.58	3.463
252.4	3.471
253.17	3.478
254.02	3.485
254.86	3.488
255.68	3.488
256.5	3.492
257.32	3.505
258.14	3.517
258.96	3.538
259.77	3.563
260.59	3.584
261.41	3.596
262.23	3.609
263.05	3.617
263.87	3.621
264.69	3.613
265.51	3.605
266.32	3.596
267.14	3.6
267.96	3.605
268.78	3.613
269.6	3.625
270.42	3.646
271.24	3.663
272.06	3.667
272.88	3.671
273.69	3.655
274.51	3.63
275.33	3.592
276.15	3.559
276.97	3.53
277.79	3.5
278.61	3.484
279.43	3.484
280.25	3.484
281.06	3.488
281.88	3.492
282.7	3.513
283.52	3.534
284.34	3.538
285.16	3.517
285.98	3.459
286.8	3.359
287.61	3.271
288.43	3.196
289.25	3.117
290.07	3.092
290.89	3.03
291.71	2.988
292.53	2.959
293.35	2.938
294.17	2.917
294.98	2.909
295.8	2.909
296.62	2.917
297.44	2.926
298.26	2.938
299.08	2.951
299.9	2.963
300.72	2.98
301.53	2.988
302.35	2.996
303.17	3.005
303.99	3.013
304.81	3.021
305.63	3.026
306.45	3.03
307.27	3.042
308.09	3.055
308.9	3.071
309.72	3.105
310.54	3.126
311.52	3.196
311.69	3.201
311.85	3.205
312.02	3.209
312.18	3.213
312.34	3.217
312.51	3.221
312.67	3.225
312.83	3.23
313	3.234
313.49	3.23
313.98	3.23
314.47	3.217
314.96	3.209
315.45	3.192
315.95	3.184
316.44	3.18
316.93	3.171
317.42	3.171
317.91	3.176
318.4	3.176
318.89	3.18
319.38	3.18
319.88	3.176
320.37	3.163
320.86	3.159
321.35	3.159
321.84	3.163
322.33	3.184
322.82	3.192
323.32	3.192
323.81	3.184
324.3	3.184
324.79	3.184
325.28	3.196
325.77	3.205
326.26	3.221
326.75	3.259
327.25	3.296
327.74	3.338
328.23	3.359
328.72	3.363
329.21	3.334
329.56	3.298
329.9	3.256
330.68	3.142
331.18	3.076
331.58	3.034
331.86	3.007
332.48	2.944
333.14	2.867
333.63	2.796
334.12	2.73
334.62	2.655
335.11	2.592
335.6	2.534
336.09	2.467
336.58	2.384
337.07	2.33
337.56	2.28
338.05	2.226
338.55	2.184
339.04	2.138
339.53	2.105
340.02	2.063
