Uv/Vis Spectrum: Dicyclopropylethanedione
Formula: C8H10O2
CAS: 15940-88-2
Boiling point: 58/ 3 mm
Instrument: unknown
Origin: INSTITUTE OF ENERGY PROBLEMS OF CHEMICAL PHYSICS, RAS
Wavelength (nm)	Logarithm epsilon
207.193	3.696
208.693	3.707
210.193	3.723
211.693	3.74
213.193	3.755
214.693	3.768
216.193	3.776
217.693	3.779
219.193	3.776
220.693	3.768
222.193	3.755
223.693	3.736
225.193	3.714
226.693	3.687
228.193	3.657
229.693	3.625
231.193	3.59
232.693	3.552
234.193	3.511
235.693	3.467
237.193	3.417
238.693	3.361
240.065	3.312
241.251	3.265
242.751	3.215
244.251	3.156
245.751	3.091
247.251	3.019
248.751	2.942
250.251	2.861
251.751	2.778
253.251	2.694
254.751	2.61
256.251	2.528
257.751	2.448
259.251	2.372
260.751	2.301
262.251	2.237
263.751	2.18
265.251	2.132
266.751	2.095
267.688	2.058
268.954	2.025
270.219	1.992
271.484	1.984
272.749	1.979
274.014	1.975
275.28	1.967
276.545	1.946
277.81	1.918
279.075	1.885
280.34	1.852
281.606	1.835
282.871	1.827
284.136	1.819
285.401	1.806
286.666	1.794
287.932	1.777
289.197	1.728
290.462	1.658
291.727	1.604
292.992	1.559
294.258	1.513
295.523	1.489
296.788	1.489
298.053	1.485
299.318	1.456
300.94	1.404
302.068	1.341
303.114	1.274
303.987	1.209
305.012	1.126
306.277	1.035
307.542	0.981
308.807	0.924
310.073	0.895
311.338	0.882
312.603	0.862
313.806	0.832
315.16	0.78
316.514	0.706
317.664	0.61
318.4	0.512
319.359	0.401
320.859	0.271
322.359	0.186
323.859	0.136
325.359	0.113
326.859	0.109
328.359	0.119
329.859	0.137
331.359	0.158
332.859	0.181
334.359	0.204
335.859	0.226
337.359	0.247
338.417	0.266
339.805	0.289
341.07	0.318
342.335	0.351
343.601	0.375
344.866	0.4
346.131	0.433
347.396	0.458
348.661	0.478
349.927	0.515
351.192	0.548
352.457	0.581
353.722	0.614
354.987	0.639
356.253	0.66
357.518	0.68
358.783	0.701
360.048	0.726
361.313	0.759
362.579	0.796
363.844	0.821
365.109	0.854
366.374	0.874
367.639	0.891
368.905	0.907
370.17	0.92
371.435	0.948
372.7	0.969
373.965	0.994
375.231	1.019
376.496	1.039
377.761	1.064
379.026	1.089
380.291	1.109
381.557	1.13
382.822	1.159
384.087	1.184
385.352	1.2
386.617	1.212
387.883	1.229
389.148	1.237
390.413	1.249
391.678	1.262
392.943	1.274
394.209	1.287
395.474	1.311
396.739	1.324
398.004	1.34
399.269	1.361
400.535	1.369
401.8	1.381
403.065	1.39
404.33	1.394
405.595	1.398
406.861	1.41
408.126	1.419
409.391	1.423
410.912	1.434
412.535	1.434
413.617	1.418
415.084	1.402
416.35	1.386
417.615	1.377
418.88	1.365
420.145	1.353
421.411	1.34
422.676	1.328
423.941	1.324
425.206	1.324
426.471	1.324
427.737	1.324
429.002	1.311
430.267	1.295
431.532	1.287
432.797	1.287
434.063	1.274
435.328	1.266
436.593	1.258
437.858	1.245
439.123	1.221
440.389	1.171
441.654	1.118
442.314	1.04
442.832	0.959
443.256	0.894
443.916	0.818
444.67	0.737
445.33	0.656
445.989	0.58
446.931	0.488
448.109	0.374
449.617	0.261
450.51	0.206
451.775	0.124
