Uv/Vis Spectrum: 1,2-Propanedione,1-cyclopropyl-
Formula: C6H8O2
CAS: 15940-89-3
Instrument: unknown
Origin: INSTITUTE OF ENERGY PROBLEMS OF CHEMICAL PHYSICS, RAS
Wavelength (nm)	Logarithm epsilon
204.98	3.389
205.61	3.393
206.23	3.397
206.85	3.401
207.47	3.405
208.1	3.409
208.72	3.413
209.34	3.418
209.96	3.422
210.59	3.43
212.46	3.442
216.19	3.459
218.06	3.463
219.93	3.463
221.8	3.459
223.67	3.454
225.54	3.438
227.4	3.409
229.27	3.389
231.14	3.36
233.01	3.323
234.88	3.274
236.75	3.221
238.61	3.163
240.48	3.118
242.35	2.987
244.22	2.913
246.09	2.835
247.96	2.708
249.82	2.614
251.69	2.544
253.56	2.38
255.43	2.261
257.3	2.13
259.17	2.023
261.04	1.957
262.9	1.884
264.77	1.838
266.64	1.793
268.51	1.752
270.38	1.732
272.25	1.695
274.11	1.658
275.98	1.637
277.85	1.629
279.72	1.629
281.59	1.621
283.46	1.605
285.32	1.564
287.19	1.531
289.06	1.502
290.93	1.469
292.8	1.428
294.67	1.379
296.54	1.318
298.4	1.277
300.27	1.223
302.14	1.186
304.01	1.133
305.88	1.104
307.75	1.063
309.61	0.944
311.48	0.838
313.35	0.698
315.22	0.67
317.09	0.657
318.96	0.637
320.82	0.579
322.69	0.526
324.56	0.436
326.43	0.378
328.3	0.313
330.17	0.272
332.04	0.259
333.9	0.255
335.77	0.259
337.64	0.272
339.51	0.28
341.38	0.296
343.25	0.309
345.11	0.341
346.98	0.366
348.85	0.411
350.72	0.436
352.59	0.469
354.46	0.489
356.32	0.518
358.19	0.567
360.06	0.592
361.93	0.62
363.8	0.661
365.67	0.698
367.54	0.739
369.4	0.776
371.27	0.821
373.14	0.854
375.01	0.883
376.88	0.92
378.75	0.961
380.61	0.981
382.48	1.022
384.35	1.063
386.22	1.1
388.09	1.129
389.96	1.158
391.82	1.182
393.69	1.195
395.56	1.211
397.43	1.231
399.3	1.248
401.17	1.272
403.04	1.293
404.9	1.318
406.77	1.342
408.64	1.367
410.51	1.375
412.38	1.387
414.25	1.391
416.11	1.4
417.98	1.391
419.85	1.375
421.72	1.375
423.59	1.367
425.46	1.359
427.32	1.338
429.19	1.326
431.06	1.318
432.93	1.318
434.8	1.322
436.67	1.318
438.54	1.297
440.4	1.297
442.27	1.301
444.14	1.289
446.01	1.219
447.88	1.01
449.75	0.854
451.61	0.678
453.48	0.456
455.35	0.374
457.22	0.198
459.09	0.062
