Uv/Vis Spectrum: 4- chlorobenzaldehyde, O-benzoyloxime
Formula: C14H10ClNO2
CAS: 16061-95-3
Melting point: 145
Instrument: Jasco ORD/UV-5
Origin: INSTITUTE OF ENERGY PROBLEMS OF CHEMICAL PHYSICS, RAS
Wavelength (nm)	Logarithm epsilon
211.572	4.377
212.572	4.382
213.572	4.386
214.572	4.39
215.572	4.391
216.572	4.389
217.572	4.382
218.572	4.37
219.572	4.354
220.572	4.333
221.572	4.309
222.572	4.282
223.572	4.254
224.572	4.225
225.558	4.196
226.558	4.182
227.558	4.172
228.558	4.165
229.558	4.161
230.558	4.159
231.558	4.159
232.558	4.161
233.558	4.164
234.558	4.168
235.558	4.172
236.558	4.177
237.558	4.183
238.558	4.189
239.558	4.196
240.558	4.204
241.558	4.212
242.558	4.222
243.558	4.233
244.557	4.244
245.557	4.262
246.557	4.279
247.557	4.298
248.557	4.319
249.557	4.344
250.557	4.372
251.557	4.401
252.557	4.43
253.557	4.457
254.557	4.482
255.557	4.504
256.557	4.521
257.557	4.535
258.557	4.547
258.674	4.549
259.674	4.564
260.674	4.576
261.674	4.586
262.674	4.594
263.674	4.599
264.674	4.602
265.674	4.603
266.674	4.602
267.674	4.599
268.674	4.594
269.674	4.587
270.674	4.577
271.674	4.566
272.674	4.552
273.674	4.535
274.507	4.52
275.507	4.498
276.507	4.472
277.507	4.446
278.507	4.419
279.507	4.393
280.507	4.367
281.507	4.342
282.507	4.317
283.507	4.292
284.507	4.264
285.507	4.233
286.381	4.203
287.381	4.156
288.381	4.113
289.381	4.067
290.381	4.017
291.381	3.964
292.381	3.91
293.381	3.865
294.381	3.839
