Uv/Vis Spectrum: 1-Aminopyrene
Formula: C16H11N
CAS: 1606-67-3
Melting point: 117-118
Instrument: Hilger-Watts Uvispek H 700, 308
Origin: INSTITUTE OF ENERGY PROBLEMS OF CHEMICAL PHYSICS, RAS
Wavelength (nm)	Logarithm epsilon
217.58	4.333
219.29	4.37
221.25	4.394
222.71	4.437
224.42	4.474
225.64	4.517
227.11	4.56
228.33	4.602
229.79	4.639
231.99	4.67
234.19	4.676
236.14	4.651
237.36	4.608
238.83	4.572
240.05	4.517
241.52	4.48
242.98	4.437
244.2	4.394
245.42	4.339
246.64	4.296
248.11	4.26
249.33	4.217
250.8	4.18
252.51	4.15
254.46	4.119
256.17	4.088
258.37	4.076
260.81	4.039
263.01	4.021
265.2	4.015
267.4	4.009
269.6	4.015
271.55	4.039
273.02	4.076
274.73	4.107
275.95	4.156
277.17	4.205
277.9	4.26
279.12	4.309
280.35	4.352
282.06	4.382
284.25	4.382
285.96	4.345
287.18	4.29
288.16	4.241
289.38	4.199
290.11	4.15
291.09	4.101
291.58	4.046
292.56	3.997
293.05	3.942
294.02	3.893
294.75	3.844
295.98	3.783
296.71	3.734
297.93	3.685
299.15	3.642
300.62	3.599
302.57	3.562
304.52	3.532
306.48	3.507
308.67	3.507
311.12	3.519
313.07	3.55
315.27	3.568
319.42	3.599
321.37	3.623
323.08	3.654
324.55	3.691
326.26	3.727
327.72	3.77
329.43	3.807
330.9	3.844
332.61	3.874
334.07	3.911
335.54	3.954
337	3.991
338.96	4.015
341.64	4.064
343.6	4.095
345.55	4.125
347.99	4.144
349.95	4.162
351.9	4.186
354.34	4.192
356.54	4.199
358.74	4.205
360.94	4.211
363.13	4.192
365.09	4.168
367.04	4.144
369	4.113
370.95	4.088
373.15	4.082
375.1	4.101
