Uv/Vis Spectrum: m-Aminobenzanilide
Formula: C13H12N2O
CAS: 16091-26-2
Instrument: n.i.g.
Origin: INSTITUTE OF ENERGY PROBLEMS OF CHEMICAL PHYSICS, RAS
Wavelength (nm)	Logarithm epsilon
385.931	0.998517
385.915	0.993317
385.868	0.978883
385.808	0.959828
385.492	1.00328
385.446	0.988849
385.431	0.98423
384.264	1.06149
384.233	1.05168
383.829	1.06626
382.876	1.06658
376.896	1.50099
376.39	1.47689
376.376	1.47227
376.288	1.44339
376.258	1.43358
376.046	1.50591
376.032	1.50129
375.972	1.48165
375.813	1.42911
375.589	1.51531
375.575	1.51069
375.175	1.52066
375.159	1.51546
374.943	1.44386
374.774	1.53005
374.746	1.52081
374.322	1.54003
374.308	1.53541
373.925	1.55
373.909	1.5448
372.05	1.65124
371.718	1.69934
371.689	1.68952
371.619	1.66584
371.589	1.65603
371.005	1.74294
370.962	1.72851
370.56	1.75235
370.547	1.74773
370.242	1.78657
370.142	1.7525
369.865	1.80057
369.838	1.79133
367.911	1.87816
367.897	1.87354
367.54	1.89274
367.513	1.88351
367.157	1.90271
367.128	1.89289
366.736	1.91732
366.708	1.9075
366.11	1.9846
365.664	1.98938
365.638	1.98015
364.46	1.99503
364.445	1.98983
364.046	2.00963
364.018	1.99982
363.655	2.01441
363.03	2.09614
362.922	2.05803
362.894	2.04821
362.202	2.0872
360.365	2.17864
360.325	2.16421
360.077	2.21748
359.984	2.18399
359.708	2.22687
359.695	2.22225
359.319	2.24667
359.279	2.23224
358.611	2.27526
358.559	2.25621
358.237	2.29968
358.185	2.28063
357.859	2.30445
357.846	2.29983
357.469	2.3046
357.058	2.31459
357.045	2.30997
356.761	2.34823
356.669	2.31474
355.99	2.3676
355.964	2.35836
355.642	2.38219
355.618	2.37295
355.284	2.39215
355.257	2.38234
354.924	2.40154
354.899	2.3923
354.506	2.40691
354.492	2.40171
354.136	2.41168
354.123	2.40706
353.78	2.42164
353.766	2.41645
353.376	2.43105
353.364	2.42643
353.046	2.45026
353.009	2.4364
352.705	2.46484
352.681	2.4556
352.331	2.48464
352.293	2.47021
351.978	2.49403
351.953	2.48479
351.614	2.49938
351.6	2.49418
350.827	2.50432
350.814	2.4997
350.528	2.53334
350.464	2.50909
350.241	2.56698
350.153	2.53349
349.833	2.57177
349.821	2.56715
349.486	2.58173
349.46	2.57192
349.152	2.59632
349.126	2.5865
348.758	2.60573
348.746	2.60111
348.425	2.62031
348.387	2.60588
348.067	2.62508
348.055	2.62046
347.689	2.63969
347.652	2.62525
347.346	2.64965
347.334	2.64503
347.016	2.66424
346.991	2.65442
346.674	2.6742
346.661	2.66901
346.286	2.68361
346.274	2.67899
345.946	2.69358
345.921	2.68376
345.63	2.71278
345.593	2.69835
345.332	2.75626
345.307	2.74644
345.246	2.72277
345.221	2.71295
344.943	2.74659
344.895	2.72754
337.86	3.00912
337.825	2.99468
332.938	3.19335
332.904	3.17891
332.245	3.20349
331.908	3.20363
330.318	3.25695
330.274	3.23789
329.944	3.25712
329.646	3.2717
329.625	3.26247
320.452	3.502
320.42	3.48756
319.829	3.52137
319.808	3.51155
319.528	3.52614
319.517	3.52152
319.227	3.53091
316.117	3.57116
316.107	3.56654
315.805	3.58576
315.784	3.57594
315.511	3.59053
315.501	3.58591
313.983	3.60112
313.963	3.5913
307.148	3.69535
307.129	3.68612
301.341	3.7418
301.101	3.761
301.074	3.74714
300.825	3.76115
300.559	3.7665
299.975	3.76682
299.709	3.77159
299.402	3.77176
284.774	3.90505
284.288	3.90998
284.28	3.90536
283.774	3.91549
283.765	3.91029
283.529	3.91564
283.291	3.92041
283.016	3.92058
282.545	3.9307
282.28	3.93548
282.272	3.93086
281.794	3.93579
281.56	3.94055
281.047	3.94087
280.553	3.95101
280.321	3.95578
280.313	3.95116
280.089	3.96055
280.081	3.95593
279.084	3.96638
279.076	3.96119
278.847	3.96653
278.625	3.97592
278.618	3.9713
278.397	3.98127
278.389	3.97607
277.904	3.98621
277.896	3.98159
277.668	3.98636
277.412	3.99114
277.177	3.9913
276.696	4.00143
275.736	4.00205
275.512	4.00682
275.288	4.01159
275.281	4.00697
274.309	4.01223
274.072	4.00776
271.716	4.00932
271.498	4.01409
268.716	4.01596
268.505	4.02131
267.391	4.04577
266.956	4.04607
266.704	4.04162
266.271	4.04192
266.035	4.04671
265.148	4.04733
264.926	4.04286
264.259	4.04333
264.053	4.0481
262.941	4.04889
262.724	4.04442
262.487	4.04459
262.48	4.03997
262.27	4.04012
261.199	4.04089
260.987	4.05549
260.972	4.04568
