Uv/Vis Spectrum: 2-Thiazolamine, 4-methyl-
Formula: C4H6N2S
CAS: 1603-91-4
Melting point: 45.5
Boiling point: 125/ 20 mm
Instrument: unknown
Origin: INSTITUTE OF ENERGY PROBLEMS OF CHEMICAL PHYSICS, RAS
Wavelength (nm)	Logarithm epsilon
211.38	3.087
211.53	3.087
211.68	3.087
211.83	3.087
211.99	3.086
212.14	3.086
212.36	3.086
212.47	3.086
212.56	3.086
212.72	3.086
213.11	3.086
213.61	3.086
214.38	3.086
215.12	3.087
215.87	3.087
216.62	3.088
217.37	3.092
218.11	3.095
218.86	3.098
219.61	3.102
220.36	3.108
221.11	3.115
221.86	3.122
222.6	3.131
223.35	3.142
224.1	3.157
224.85	3.168
225.6	3.184
226.35	3.198
227.1	3.213
227.84	3.227
228.59	3.244
229.34	3.258
230.09	3.273
230.84	3.286
231.59	3.3
232.34	3.313
233.08	3.332
233.83	3.347
234.58	3.362
235.33	3.376
236.08	3.392
236.83	3.405
237.57	3.423
238.32	3.438
239.07	3.456
239.82	3.473
240.57	3.489
241.32	3.506
242.07	3.521
242.81	3.536
243.56	3.554
244.31	3.569
245.06	3.584
245.81	3.598
246.56	3.611
247.31	3.625
248.05	3.641
248.8	3.658
249.55	3.671
250.3	3.684
251.05	3.695
251.8	3.704
252.54	3.71
253.29	3.714
254.04	3.721
254.79	3.726
255.54	3.728
256.29	3.73
257.04	3.734
257.78	3.736
258.53	3.737
259.28	3.737
260.03	3.736
261.38	3.731
261.53	3.73
262.13	3.727
262.87	3.721
263.62	3.714
264.37	3.707
265.12	3.694
265.87	3.685
266.62	3.672
267.37	3.66
268.11	3.645
268.86	3.632
269.61	3.612
270.36	3.594
271.11	3.571
271.86	3.548
272.6	3.521
273.35	3.489
274.1	3.453
274.85	3.412
275.6	3.377
276.35	3.339
277.1	3.307
277.84	3.253
278.59	3.204
279.34	3.155
280.09	3.088
280.84	3.031
281.59	2.985
