Uv/Vis Spectrum: 2-Pyridinamine, 3-methyl-
Formula: C6H8N2
CAS: 1603-40-3
Melting point: oil
Instrument: Beckman DU
Origin: INSTITUTE OF ENERGY PROBLEMS OF CHEMICAL PHYSICS, RAS
Wavelength (nm)	Logarithm epsilon
202.9	3.411
203.42	3.381
203.76	3.351
204.27	3.324
204.78	3.297
205.3	3.27
205.98	3.243
206.66	3.216
207.69	3.192
208.88	3.172
210.42	3.179
211.27	3.206
211.79	3.233
212.3	3.263
212.98	3.29
213.32	3.32
213.84	3.347
214.35	3.374
215.03	3.401
215.54	3.432
216.06	3.462
216.4	3.492
217.08	3.519
217.42	3.55
217.94	3.58
218.45	3.61
218.96	3.641
219.64	3.668
220.16	3.698
220.84	3.725
221.52	3.752
222.04	3.779
222.89	3.806
223.57	3.833
224.43	3.86
225.28	3.887
226.13	3.914
227.16	3.938
228.01	3.961
229.21	3.978
230.41	3.995
231.77	4.008
233.31	4.008
234.85	3.998
236.38	3.988
237.58	3.968
238.6	3.948
239.46	3.924
240.14	3.897
240.65	3.87
241.17	3.843
241.68	3.813
242.19	3.782
242.53	3.752
243.05	3.725
243.56	3.695
243.9	3.664
244.24	3.634
244.58	3.604
244.75	3.573
244.92	3.543
245.27	3.513
245.61	3.482
245.78	3.452
245.95	3.422
246.29	3.391
246.46	3.361
246.8	3.331
247.32	3.3
247.49	3.27
247.66	3.239
248	3.209
248.17	3.179
248.51	3.148
248.68	3.118
248.85	3.088
249.19	3.057
249.37	3.027
249.71	2.997
249.88	2.966
250.22	2.936
250.56	2.906
250.73	2.875
251.07	2.845
251.24	2.814
251.76	2.788
251.93	2.757
252.27	2.727
252.61	2.696
253.12	2.669
253.81	2.642
254.83	2.619
256.37	2.619
257.22	2.646
258.08	2.673
258.76	2.7
259.44	2.727
259.96	2.754
260.81	2.781
261.49	2.808
262.18	2.835
262.86	2.862
263.54	2.889
264.23	2.916
264.91	2.943
265.59	2.97
266.11	2.997
266.96	3.024
267.47	3.051
268.16	3.078
269.01	3.105
269.69	3.132
270.55	3.159
271.23	3.185
271.91	3.212
272.77	3.239
273.45	3.266
274.3	3.29
274.82	3.317
275.84	3.341
276.7	3.368
277.55	3.391
278.4	3.418
279.43	3.442
280.28	3.465
281.31	3.489
282.33	3.513
283.36	3.536
284.55	3.556
285.58	3.58
286.6	3.604
287.8	3.621
288.99	3.641
290.36	3.658
291.73	3.671
293.09	3.685
294.63	3.688
296.17	3.691
297.71	3.691
299.24	3.685
300.61	3.671
301.98	3.654
303.34	3.637
304.54	3.621
305.56	3.6
306.42	3.577
307.27	3.553
308.13	3.53
308.98	3.503
309.66	3.476
310.52	3.452
311.2	3.425
311.71	3.398
312.57	3.371
313.08	3.341
313.76	3.314
314.45	3.287
314.96	3.256
315.47	3.229
315.98	3.202
316.5	3.172
317.01	3.145
317.52	3.115
317.86	3.084
318.38	3.054
318.72	3.024
319.23	2.997
319.57	2.966
320.08	2.939
320.42	2.909
320.94	2.879
321.28	2.848
321.62	2.818
321.96	2.788
322.3	2.757
322.82	2.727
322.99	2.696
323.33	2.666
323.84	2.639
324.18	2.609
324.52	2.578
324.7	2.548
325.04	2.518
325.38	2.487
325.72	2.457
325.89	2.427
326.23	2.396
326.57	2.366
326.75	2.336
327.09	2.305
327.43	2.275
327.6	2.245
327.94	2.214
328.11	2.184
328.45	2.153
328.79	2.123
328.97	2.093
329.14	2.062
329.48	2.032
329.82	2.002
330.33	1.971
330.5	1.941
330.67	1.911
331.02	1.88
331.19	1.85
331.53	1.82
331.7	1.789
331.87	1.759
332.04	1.728
332.38	1.698
332.55	1.668
332.89	1.637
333.07	1.607
333.24	1.577
333.58	1.546
333.75	1.516
333.92	1.486
334.26	1.455
334.43	1.425
334.6	1.395
334.77	1.364
335.12	1.334
335.29	1.304
335.63	1.273
335.97	1.243
336.14	1.212
336.31	1.182
336.48	1.152
336.82	1.121
336.99	1.091
337.34	1.061
337.51	1.03
337.68	1
337.85	0.97
338.19	0.939
338.36	0.909
338.53	0.879
338.87	0.848
