Uv/Vis Spectrum: Benzeneacetic acid, <alpha>-oxo-, ethyl ester
Formula: C10H10O3
CAS: 1603-79-8
Boiling point: 256.5
Instrument: SF-4
Origin: INSTITUTE OF ENERGY PROBLEMS OF CHEMICAL PHYSICS, RAS
Wavelength (nm)	Logarithm epsilon
223.86	3.66
224.55	3.676
225.11	3.693
225.68	3.709
226.25	3.728
226.93	3.744
227.61	3.758
228.18	3.775
228.75	3.791
229.43	3.805
230.11	3.821
230.68	3.838
231.36	3.852
232.04	3.866
232.73	3.882
233.29	3.899
233.98	3.913
234.66	3.929
235.23	3.948
235.91	3.962
236.48	3.981
237.16	3.997
237.73	4.013
238.41	4.03
239.09	4.044
239.66	4.062
240.34	4.076
241.02	4.09
241.59	4.109
242.27	4.126
243.07	4.14
243.86	4.154
244.54	4.17
245.45	4.177
246.25	4.189
247.27	4.189
248.29	4.193
249.32	4.189
250.34	4.182
251.25	4.172
252.16	4.161
252.78	4.146
253.44	4.131
254.09	4.116
254.77	4.1
255.45	4.083
256.04	4.067
256.61	4.054
257.27	4.034
257.84	4.016
258.27	4.002
258.74	3.983
259.31	3.964
259.88	3.948
260.45	3.929
260.96	3.913
261.53	3.897
262.05	3.882
262.72	3.866
263.32	3.85
263.94	3.834
264.67	3.817
265.45	3.8
266.13	3.784
266.81	3.768
267.39	3.756
268.18	3.74
268.86	3.725
269.51	3.712
270.25	3.697
271.02	3.683
271.63	3.671
272.32	3.658
273.18	3.644
273.97	3.63
274.71	3.62
275.56	3.606
276.36	3.594
277.15	3.583
277.81	3.571
278.63	3.557
279.44	3.543
280.11	3.531
280.9	3.52
281.7	3.508
282.49	3.494
283.29	3.48
284.09	3.466
284.77	3.452
285.45	3.438
286.13	3.424
286.81	3.41
287.49	3.396
288.06	3.379
288.74	3.365
289.43	3.349
289.99	3.332
290.56	3.316
291.02	3.297
291.59	3.281
292.15	3.265
292.72	3.246
293.19	3.23
293.86	3.211
294.46	3.193
295.11	3.176
295.79	3.162
296.47	3.148
297.15	3.134
297.83	3.12
298.52	3.103
299.2	3.087
299.88	3.07
300.56	3.054
301.24	3.038
301.93	3.024
302.61	3.007
303.17	2.991
303.86	2.974
304.42	2.958
304.91	2.943
305.45	2.923
305.93	2.905
306.47	2.886
306.81	2.867
307.15	2.848
307.49	2.829
307.83	2.811
308.17	2.792
308.46	2.774
308.77	2.751
309.11	2.732
309.54	2.712
309.88	2.694
310.22	2.675
310.56	2.654
310.9	2.635
311.33	2.617
311.81	2.598
312.35	2.579
312.83	2.563
313.4	2.546
314.08	2.53
314.76	2.514
315.33	2.495
