Uv/Vis Spectrum: Triphenylene, 1,2,3,4,5,6,7,8,9,10,11,12-dodecahydro-
Formula: C18H24
CAS: 1610-39-5
Melting point: 232.0-233.0
Instrument: Spectrophotometer SF-16
Origin: INSTITUTE OF ENERGY PROBLEMS OF CHEMICAL PHYSICS, RAS
Wavelength (nm)	Logarithm epsilon
210	4.43999
211	4.38
212	4.32
213	4.27
214	4.21
215	4.18
216	4.15
217	4.13
218	4.1
219	4.08
220	4.06002
221	4.04
222	4.03
223	4.01
224	3.99
225	3.97
226	3.95
227	3.93
228	3.9
229	3.88
230	3.84
231	3.75
232	3.63
233	3.52
234	3.4
235	3.27
236	3.14
237	3.01
238	2.87
239	2.74
240	2.6
241	2.47
242	2.33
243	2.19
244	2.11
245	2.11
246	2.1
247	2.1
248	2.12
249	2.14
250	2.15999
251	2.19
252	2.23
253	2.25
254	2.27
255	2.29
256	2.31
257	2.33
258	2.35
259	2.36
260	2.36999
261	2.38
262	2.4
263	2.41
264	2.42
265	2.42
266	2.42
267	2.41
268	2.39
269	2.36
