Uv/Vis Spectrum: Vincamine
Formula: C21H26N2O3
CAS: 1617-90-9
Melting point: 234.5
Instrument: Beckman DU
Origin: INSTITUTE OF ENERGY PROBLEMS OF CHEMICAL PHYSICS, RAS
Wavelength (nm)	Logarithm epsilon
204.1	4.268
204.27	4.268
204.45	4.268
204.62	4.265
204.79	4.265
204.96	4.265
205.13	4.265
205.3	4.265
205.47	4.265
205.64	4.265
205.81	4.265
206.5	4.251
207.69	4.254
208.89	4.254
210.09	4.268
211.29	4.271
212.48	4.285
213.68	4.295
214.88	4.306
216.07	4.323
217.27	4.344
218.47	4.364
219.66	4.381
220.86	4.399
222.06	4.419
223.26	4.443
224.45	4.464
225.65	4.484
226.85	4.498
228.04	4.512
229.24	4.512
230.44	4.498
231.63	4.474
232.83	4.454
234.03	4.416
235.23	4.357
236.42	4.268
237.62	4.13
238.82	3.993
240.01	3.845
241.21	3.728
242.41	3.625
243.6	3.557
244.8	3.495
246	3.467
247.19	3.436
248.39	3.422
249.59	3.422
250.79	3.422
251.98	3.44
253.18	3.464
254.38	3.488
255.57	3.512
256.77	3.536
257.97	3.567
259.16	3.598
260.36	3.649
261.56	3.666
262.76	3.701
263.95	3.718
265.15	3.746
266.35	3.766
267.54	3.801
268.74	3.807
269.94	3.831
271.13	3.849
272.33	3.862
273.53	3.876
274.73	3.883
275.92	3.897
277.12	3.911
278.32	3.914
279.51	3.917
280.71	3.917
281.91	3.914
283.1	3.911
284.3	3.907
285.5	3.89
286.69	3.876
287.89	3.852
289.09	3.828
290.29	3.79
291.48	3.756
292.68	3.721
293.88	3.673
295.07	3.622
296.27	3.553
297.47	3.481
298.66	3.402
299.86	3.316
301.06	3.237
302.26	3.158
303.45	3.027
305.85	2.852
307.04	2.711
308.24	2.574
309.44	2.422
310.63	2.261
311.83	2.096
313.03	1.924
314.23	1.732
315.42	1.57
316.62	1.391
317.82	1.213
319.01	1.058
320.21	0.893
321.41	0.735
