Uv/Vis Spectrum: N-Methyl-1,2,3,4-tetrahydroisoquinoline
Formula: C10H13N
CAS: 1612-65-3
Melting point: 226-227
Instrument: Hilger Uvispek
Origin: INSTITUTE OF ENERGY PROBLEMS OF CHEMICAL PHYSICS, RAS
Wavelength (nm)	Logarithm epsilon
202.55	3.946
203.57	3.922
204.59	3.899
206.11	3.892
207.13	3.916
208.32	3.932
209.68	3.943
211.21	3.936
212.57	3.922
213.42	3.899
214.27	3.875
215.11	3.848
216.98	3.726
217.15	3.716
217.49	3.682
218	3.611
218.51	3.55
219.02	3.483
219.53	3.405
220.04	3.321
220.55	3.24
221.06	3.148
221.57	3.067
222.08	2.993
222.59	2.881
223.1	2.787
223.61	2.702
224.12	2.614
224.62	2.53
225.13	2.439
225.64	2.357
226.15	2.253
226.66	2.168
227.17	2.074
227.68	1.972
228.19	1.881
228.7	1.766
229.21	1.712
229.72	1.695
230.23	1.675
230.74	1.665
231.25	1.651
231.76	1.644
232.27	1.634
232.78	1.631
233.29	1.631
233.8	1.634
234.3	1.644
234.81	1.665
235.32	1.685
235.83	1.709
236.34	1.725
236.85	1.742
237.36	1.756
237.87	1.773
238.38	1.786
238.89	1.8
239.4	1.81
239.91	1.827
240.42	1.84
240.93	1.854
241.44	1.871
241.95	1.884
242.46	1.898
242.97	1.911
243.48	1.932
243.98	1.949
244.49	1.965
245	1.986
245.51	2.003
246.02	2.023
246.53	2.04
247.04	2.06
247.55	2.077
248.06	2.097
248.57	2.114
249.08	2.134
249.59	2.155
250.1	2.172
250.61	2.192
251.12	2.205
251.63	2.236
252.14	2.246
252.65	2.266
253.16	2.286
253.67	2.3
254.17	2.314
254.68	2.327
255.19	2.341
255.7	2.351
256.21	2.357
256.72	2.357
257.23	2.354
257.74	2.337
258.25	2.327
258.76	2.324
259.27	2.327
259.78	2.351
260.29	2.374
260.8	2.388
261.31	2.401
261.82	2.408
262.33	2.415
262.84	2.422
263.35	2.425
263.85	2.425
264.36	2.418
264.87	2.401
265.38	2.378
265.89	2.354
266.4	2.334
266.91	2.303
267.42	2.276
267.93	2.249
268.44	2.239
268.95	2.236
269.46	2.243
269.97	2.293
270.48	2.32
270.99	2.341
271.5	2.341
272.01	2.29
272.52	2.226
273.03	2.141
273.53	2.033
274.04	1.969
274.55	1.881
275.06	1.796
275.57	1.715
276.08	1.58
276.59	1.523
277.1	1.448
277.61	1.317
278.12	1.239
278.63	1.134
279.14	1.073
280.16	0.962
280.67	0.85
281.18	0.769
