Uv/Vis Spectrum: 2-iodo-4-methylphenol
CAS: 16188-57-1
Melting point: 36-37
Instrument: Cary 15
Origin: INSTITUTE OF ENERGY PROBLEMS OF CHEMICAL PHYSICS, RAS
Wavelength (nm)	Logarithm epsilon
235.48	3.699
236.48	3.554
237.48	3.424
238.48	3.31
239.48	3.212
240.48	3.13
241.48	3.065
242.48	3.016
243.48	2.983
244.328	2.969
245.328	2.964
246.328	2.961
247.328	2.959
248.328	2.959
249.328	2.96
250.328	2.964
251.328	2.968
252.328	2.975
253.328	2.982
254.328	2.992
255.328	3.003
256.328	3.015
257.328	3.029
258.328	3.043
259.328	3.059
260.328	3.076
261.328	3.093
262.328	3.112
263.328	3.13
264.328	3.149
265.328	3.169
266.328	3.189
267.328	3.209
268.328	3.229
269.328	3.25
270.328	3.272
271.328	3.295
272.328	3.319
272.345	3.322
273.345	3.342
274.345	3.366
275.345	3.394
276.345	3.421
277.345	3.449
278.345	3.474
279.345	3.497
280.345	3.516
281.345	3.533
282.345	3.545
283.345	3.555
284.345	3.561
285.345	3.564
286.345	3.565
287.345	3.564
288.345	3.562
289.345	3.559
290.345	3.555
291.345	3.551
292.345	3.546
293.345	3.54
295.028	3.527
295.078	3.525
296.078	3.517
297.078	3.479
298.078	3.418
299.078	3.34
300.078	3.252
301.078	3.156
302.078	3.057
303.078	2.957
304.078	2.856
305.078	2.756
306.078	2.657
307.078	2.559
308.078	2.462
309.078	2.367
310.078	2.273
311.078	2.182
312.078	2.095
313.078	2.016
