Uv/Vis Spectrum: 1H-Benz[f]indene, 2,3-dihydro-
Formula: C13H12
CAS: 1624-26-6
Melting point: 94.3-94.8
Instrument: Unicam SP 500
Origin: INSTITUTE OF ENERGY PROBLEMS OF CHEMICAL PHYSICS, RAS
Wavelength (nm)	Logarithm epsilon
200.17	4.025
200.25	4.027
200.34	4.03
200.43	4.032
200.51	4.034
200.6	4.036
200.69	4.038
200.77	4.04
200.86	4.042
200.95	4.044
201.03	4.047
201.47	4.062
201.91	4.076
202.35	4.089
202.79	4.104
203.23	4.115
203.68	4.127
204.13	4.138
204.58	4.151
205.03	4.162
205.48	4.176
205.94	4.191
206.4	4.202
206.86	4.215
207.32	4.232
207.78	4.245
208.25	4.264
208.72	4.279
209.19	4.298
209.66	4.319
210.14	4.338
210.61	4.359
211.09	4.385
211.57	4.406
212.06	4.428
212.54	4.449
213.03	4.47
213.52	4.496
214.01	4.517
214.51	4.538
215	4.559
215.5	4.581
216	4.602
216.51	4.623
217.01	4.642
217.52	4.664
218.03	4.681
218.55	4.702
219.06	4.723
219.58	4.742
220.1	4.764
220.62	4.779
221.15	4.8
221.68	4.819
222.21	4.836
222.74	4.855
223.28	4.868
223.82	4.881
224.36	4.896
224.9	4.908
225.45	4.919
226	4.928
226.55	4.932
227.1	4.934
227.66	4.932
228.22	4.921
228.78	4.9
229.35	4.881
229.91	4.847
230.48	4.804
231.06	4.751
231.63	4.696
232.21	4.649
232.8	4.581
233.38	4.5
233.97	4.43
234.56	4.323
235.16	4.24
235.75	4.138
236.35	4.051
236.96	3.949
237.56	3.842
238.17	3.761
238.79	3.659
239.4	3.595
240.02	3.525
240.64	3.472
241.27	3.421
241.68	3.389
242.36	3.35
243.28	3.304
244.24	3.271
245.25	3.249
246.26	3.246
247.18	3.257
247.71	3.274
248.37	3.291
248.77	3.308
249.3	3.325
249.84	3.342
250.51	3.359
251.46	3.37
252.56	3.376
253.66	3.387
254.5	3.4
255.2	3.417
255.9	3.434
256.47	3.451
257.18	3.468
257.75	3.485
258.18	3.504
258.9	3.521
259.48	3.538
260.06	3.555
260.94	3.568
262.26	3.568
263.6	3.566
264.81	3.576
265.72	3.589
266.33	3.606
267.09	3.623
267.55	3.642
267.81	3.653
268.02	3.661
268.34	3.672
268.59	3.68
268.84	3.688
269.05	3.694
269.27	3.7
269.43	3.703
269.6	3.706
269.73	3.708
269.86	3.71
270	3.711
270.14	3.711
270.29	3.712
270.41	3.713
270.55	3.713
270.67	3.713
270.89	3.714
271.1	3.713
271.31	3.712
271.63	3.71
271.94	3.706
272.26	3.7
272.58	3.693
272.9	3.689
273.22	3.683
273.55	3.674
273.87	3.67
274.19	3.661
274.52	3.657
274.84	3.653
275.17	3.653
275.49	3.653
275.82	3.661
276.15	3.666
276.48	3.674
276.81	3.683
277.14	3.683
277.47	3.681
277.8	3.685
278.14	3.693
278.47	3.702
278.8	3.708
279.14	3.717
279.48	3.725
279.81	3.73
280.15	3.738
280.49	3.744
280.83	3.747
281.17	3.747
281.51	3.738
281.85	3.734
282.19	3.719
282.54	3.706
282.88	3.687
283.23	3.672
283.57	3.664
283.92	3.661
284.27	3.659
284.62	3.642
284.97	3.625
285.32	3.61
285.67	3.589
286.02	3.57
286.37	3.557
286.73	3.54
287.08	3.536
287.44	3.536
287.79	3.54
288.15	3.549
288.51	3.553
288.87	3.559
289.23	3.564
289.59	3.568
289.95	3.57
290.31	3.576
290.68	3.581
291.04	3.581
291.41	3.581
291.77	3.583
292.14	3.583
292.51	3.581
292.88	3.578
293.25	3.572
293.62	3.564
293.99	3.551
294.37	3.532
294.74	3.493
295.11	3.478
295.49	3.449
295.87	3.417
296.24	3.398
296.62	3.361
297	3.312
297.38	3.266
297.76	3.202
298.15	3.161
298.53	3.089
298.92	3.027
299.3	2.989
299.69	2.97
300.07	2.951
300.46	2.934
300.85	2.917
301.24	2.891
301.63	2.866
302.03	2.829
302.42	2.825
302.82	2.812
303.21	2.812
303.61	2.804
304.01	2.8
304.4	2.797
304.8	2.797
305.21	2.802
305.61	2.819
305.92	2.855
306.14	2.9
306.34	2.941
306.54	2.986
306.8	3.033
307.02	3.076
307.23	3.11
307.46	3.128
307.61	3.137
307.84	3.137
308.04	3.115
308.25	3.076
308.47	3.035
308.73	2.993
308.95	2.955
309.16	2.916
309.38	2.884
309.61	2.86
309.89	2.848
310.1	2.842
310.31	2.836
310.51	2.827
310.72	2.821
310.93	2.819
311.14	2.819
311.35	2.817
311.56	2.814
311.77	2.81
311.98	2.806
312.18	2.802
312.4	2.802
312.61	2.802
312.82	2.802
313.03	2.808
313.24	2.814
313.45	2.817
313.66	2.817
313.87	2.817
314.09	2.817
314.3	2.814
314.51	2.812
314.73	2.81
314.94	2.806
315.15	2.793
315.37	2.776
315.55	2.763
315.73	2.753
315.97	2.747
316.23	2.744
316.44	2.744
316.64	2.743
316.87	2.742
317.09	2.742
317.31	2.738
317.45	2.733
317.69	2.725
317.86	2.719
318.05	2.713
318.32	2.709
318.61	2.706
318.83	2.708
319.05	2.718
319.27	2.748
319.49	2.814
319.67	2.856
319.83	2.896
320.03	2.946
320.29	2.996
320.49	3.034
320.61	3.059
320.75	3.081
320.97	3.119
321.25	3.171
321.51	3.209
321.73	3.231
321.93	3.239
322.17	3.242
322.35	3.235
322.59	3.221
322.77	3.196
322.95	3.144
323.17	3.08
323.39	3.018
323.61	2.958
323.83	2.896
324.01	2.846
324.27	2.769
324.47	2.712
324.75	2.631
324.97	2.572
325.23	2.492
325.45	2.427
325.67	2.35
325.98	2.272
326.4	2.177
326.7	2.097
327.04	2.011
327.38	1.923
327.6	1.872
327.84	1.818
328.07	1.767
328.31	1.714
328.5	1.678
328.7	1.637
329	1.582
329.24	1.529
329.47	1.499
329.68	1.464
329.94	1.423
330.17	1.361
330.41	1.31
330.64	1.286
330.88	1.278
