Uv/Vis Spectrum: Trimethylphenylgermanium
Formula: C9H14Ge
CAS: 1626-00-2
Boiling point: 120-122/ 15 mm
Instrument: Spekromom 201
Origin: INSTITUTE OF ENERGY PROBLEMS OF CHEMICAL PHYSICS, RAS
Wavelength (nm)	Logarithm epsilon
205.5	3.92
205.71	3.919
205.95	3.918
206.2	3.917
206.4	3.913
206.62	3.908
206.85	3.903
207.26	3.892
207.83	3.879
209	3.856
210.17	3.842
211.33	3.839
212.5	3.842
213.67	3.856
214.83	3.859
216	3.859
217.17	3.842
218.33	3.825
219.5	3.791
220.67	3.737
221.83	3.646
223	3.548
224.17	3.433
225.33	3.284
226.5	3.118
227.67	2.915
228.83	2.712
230	2.508
231.17	2.309
232.33	2.15
233.5	2.007
234.67	1.889
235.83	1.818
237	1.794
238.17	1.784
239.33	1.794
240.5	1.821
241.04	1.84
241.32	1.854
241.69	1.87
242	1.879
242.17	1.882
242.33	1.882
242.5	1.886
242.67	1.889
242.83	1.889
243	1.892
243.17	1.892
243.33	1.889
243.5	1.892
243.67	1.896
243.83	1.896
244	1.899
244.17	1.903
244.33	1.909
244.5	1.916
244.67	1.926
244.83	1.933
245	1.947
245.17	1.953
245.33	1.967
245.5	1.97
245.67	1.984
245.83	1.987
246	2.001
246.17	2.004
246.33	2.007
246.5	2.014
246.67	2.018
246.83	2.018
247	2.024
247.17	2.028
247.33	2.028
247.5	2.028
247.67	2.024
247.83	2.021
248	2.021
248.17	2.018
248.33	2.018
248.5	2.014
248.67	2.011
248.83	2.011
249	2.011
249.17	2.014
249.33	2.014
249.5	2.014
249.67	2.018
249.83	2.021
250	2.028
250.17	2.038
250.33	2.045
250.5	2.062
250.67	2.079
250.83	2.092
251	2.112
251.17	2.133
251.33	2.153
251.5	2.167
251.67	2.177
251.79	2.184
251.96	2.188
252.16	2.189
252.34	2.189
252.5	2.183
252.67	2.177
252.82	2.167
252.98	2.155
253.17	2.146
253.33	2.138
253.5	2.129
253.65	2.122
253.83	2.112
254.01	2.103
254.17	2.095
254.33	2.085
254.5	2.079
254.67	2.075
254.83	2.072
255	2.072
255.17	2.072
255.33	2.072
255.5	2.072
255.67	2.072
255.83	2.072
256	2.075
256.17	2.079
256.33	2.082
256.5	2.089
256.69	2.099
256.85	2.112
257	2.126
257.17	2.139
257.33	2.153
257.54	2.169
257.69	2.183
257.85	2.198
258	2.214
258.17	2.231
258.33	2.25
258.48	2.264
258.67	2.278
258.83	2.285
259.02	2.276
259.17	2.258
259.33	2.238
259.5	2.221
259.67	2.2
259.83	2.183
259.99	2.171
260.15	2.159
260.32	2.146
260.5	2.133
260.67	2.123
260.83	2.109
261	2.099
261.17	2.089
261.33	2.082
261.5	2.072
261.66	2.065
261.83	2.059
262.01	2.053
262.17	2.048
262.34	2.042
262.5	2.038
262.83	2.035
263	2.035
263.17	2.035
263.33	2.035
263.51	2.04
263.69	2.047
263.86	2.056
264.03	2.065
264.17	2.079
264.37	2.104
264.53	2.126
264.67	2.15
264.83	2.177
265	2.183
265.17	2.183
265.33	2.167
265.5	2.136
265.67	2.102
265.85	2.073
266	2.038
266.17	2.011
266.33	1.987
266.81	1.933
267.3	1.879
267.95	1.82
268.82	1.732
269.5	1.655
270.83	1.503
272.17	1.344
273.5	1.198
274.83	1.066
276.17	0.944
277.5	0.836
278.83	0.745
280.17	0.674
281.5	0.616
282.83	0.579
284.17	0.542
285.5	0.501
286.83	0.467
288.17	0.43
289.5	0.396
290.83	0.362
