Uv/Vis Spectrum: N-propyl-9H-purin-6-amine
Formula: C8H11N5
CAS: 16370-58-4
Melting point: 240-241
Instrument: Cary 15
Origin: INSTITUTE OF ENERGY PROBLEMS OF CHEMICAL PHYSICS, RAS
Wavelength (nm)	Logarithm epsilon
189.842	4.052
190.842	4.007
191.842	3.978
192.842	3.963
193.842	3.96
194.842	3.966
195.842	3.98
196.842	4.001
197.842	4.027
198.842	4.057
199.842	4.091
200.842	4.126
201.842	4.162
202.842	4.197
203.842	4.229
204.842	4.256
205.842	4.278
206.842	4.292
207.842	4.297
208.842	4.293
209.824	4.282
210.824	4.261
211.824	4.236
212.824	4.212
213.824	4.192
214.824	4.173
215.824	4.148
216.824	4.107
217.824	4.034
218.886	3.936
219.886	3.825
220.886	3.704
221.084	3.677
222.084	3.558
223.084	3.469
224.084	3.403
225.084	3.357
226.084	3.327
227.084	3.31
228.084	3.303
229.084	3.306
230.084	3.315
231.084	3.331
232.084	3.352
233.084	3.377
234.084	3.405
235.084	3.437
236.084	3.47
237.084	3.506
238.084	3.542
239.084	3.579
239.163	3.58
240.163	3.621
241.163	3.658
242.163	3.694
243.163	3.731
244.163	3.768
245.163	3.806
246.163	3.844
247.163	3.883
248.163	3.92
249.163	3.956
250.163	3.99
251.163	4.021
252.163	4.048
253.163	4.073
254.071	4.092
255.071	4.118
256.071	4.142
257.071	4.164
258.071	4.183
259.071	4.199
260.071	4.212
261.071	4.222
262.071	4.228
263.071	4.232
264.071	4.234
265.071	4.233
266.071	4.23
267.071	4.226
268.071	4.219
269.071	4.211
270.071	4.2
271.071	4.188
272.071	4.172
273.071	4.153
274.071	4.131
275.071	4.105
276.071	4.073
277.071	4.037
278.071	3.995
279.071	3.946
280.071	3.892
281.031	3.829
282.031	3.777
283.031	3.701
284.031	3.61
285.031	3.508
286.031	3.4
287.031	3.284
288.031	3.159
289.031	3.021
290.031	2.864
290.863	2.706
