Uv/Vis Spectrum: [2.2]Paracyclophane
Formula: C16H16
CAS: 1633-22-3
Instrument: Cary PMS 11
Origin: INSTITUTE OF ENERGY PROBLEMS OF CHEMICAL PHYSICS, RAS
Wavelength (nm)	Logarithm epsilon
211.632	5.62617
211.722	5.62572
211.818	5.62517
211.924	5.62441
214.525	5.63004
214.733	5.63396
214.95	5.63767
215.173	5.64129
216.286	5.67673
216.398	5.67988
216.516	5.68302
216.643	5.68616
217.575	5.72517
217.693	5.73098
217.82	5.73669
217.952	5.7422
219.041	5.7848
219.159	5.78927
219.286	5.79364
219.419	5.79781
220.62	5.84087
220.709	5.84534
220.804	5.8497
220.909	5.85387
222.088	5.8929
222.244	5.8986
222.399	5.9041
222.555	5.9095
224.318	5.9468
224.593	5.94949
224.878	5.95209
225.169	5.95449
227.034	5.94349
227.176	5.93935
227.328	5.935
227.486	5.93056
228.528	5.89175
228.581	5.88447
228.644	5.87699
228.713	5.86941
229.283	5.83234
229.284	5.82608
229.286	5.81982
229.288	5.81356
229.862	5.76173
229.863	5.75681
229.864	5.75189
229.865	5.74697
230.054	5.70986
230.291	5.67152
230.799	5.62217
231.766	5.59464
231.766	5.59464
232.088	5.5568
232.442	5.52701
232.823	5.49276
232.823	5.49276
234	5.44406
234.617	5.41995
234.796	5.40932
235.927	5.37588
236.108	5.37052
236.295	5.36505
236.492	5.35939
237.621	5.32775
237.764	5.32238
237.917	5.31691
238.074	5.31124
239.497	5.27247
239.679	5.26576
239.867	5.25896
240.064	5.25195
241.194	5.21673
241.399	5.21004
241.608	5.20335
241.827	5.19666
243.252	5.15387
243.434	5.14716
243.621	5.14035
243.818	5.13335
245.13	5.09099
245.379	5.08296
245.627	5.07494
245.876	5.06691
247.187	5.02768
247.346	5.02099
247.505	5.01429
247.664	5.0076
248.886	4.96478
249.068	4.95942
249.254	4.95395
249.451	4.94829
250.764	4.9019
250.922	4.89654
251.081	4.89107
251.239	4.8854
252.462	4.84258
252.644	4.83455
252.831	4.82652
253.029	4.81849
254.16	4.77969
254.41	4.76941
254.659	4.75903
254.908	4.74845
256.042	4.70205
256.224	4.69402
256.412	4.68598
256.609	4.67795
257.72	4.63155
257.841	4.62351
257.972	4.61547
258.107	4.60743
258.68	4.56097
258.733	4.55605
258.795	4.55114
258.863	4.54623
259.639	4.49397
259.692	4.4886
259.755	4.48312
259.823	4.47744
260.584	4.39388
260.608	4.38972
260.638	4.38537
260.677	4.38091
261.34	4.33089
261.342	4.32462
261.344	4.31836
261.345	4.3121
261.739	4.26383
261.791	4.25892
261.854	4.25401
261.922	4.24909
262.496	4.19726
262.549	4.18998
262.612	4.1825
262.681	4.17492
263.635	4.12671
263.688	4.12077
263.751	4.11463
263.819	4.10839
264.952	4.06377
265.222	4.05818
265.322	4.05437
265.337	4.04905
267.008	4.00807
267.257	4.00317
267.511	3.99828
267.775	3.99338
270.469	3.98471
270.806	3.98653
271.148	3.98835
271.5	3.99018
273.175	4.01986
273.421	4.02378
273.667	4.0275
273.913	4.03112
276.212	4.07787
276.303	4.07864
276.398	4.07921
276.503	4.07968
278.915	4.12465
279.341	4.13094
279.771	4.13713
280.212	4.14312
282.455	4.14737
282.636	4.14245
282.823	4.13743
283.019	4.13222
284.893	4.08812
284.893	4.08576
284.894	4.08319
284.895	4.08052
286.207	4.03592
286.389	4.02923
286.576	4.02254
286.773	4.01585
287.905	3.97705
288.153	3.96979
288.402	3.96232
288.651	3.95476
290.341	3.92496
290.482	3.92451
290.634	3.92396
290.79	3.92322
293.33	3.90692
293.577	3.90648
293.823	3.90595
294.07	3.90521
296.499	3.88487
296.68	3.88252
296.866	3.87997
297.062	3.87733
299.671	3.84807
299.852	3.84572
300.038	3.84317
300.234	3.84052
302.103	3.81476
302.403	3.80987
302.712	3.80498
303.027	3.80009
304.537	3.77028
304.747	3.76491
304.967	3.75945
305.192	3.75379
309.411	3.66342
309.659	3.65539
309.908	3.64736
310.157	3.63934
