Uv/Vis Spectrum: 1-methylbenzimidazole
Formula: C8H8N2
CAS: 1632-83-3
Melting point: 66
Instrument: Shimadzu UV-190
Origin: INSTITUTE OF ENERGY PROBLEMS OF CHEMICAL PHYSICS, RAS
Wavelength (nm)	Logarithm epsilon
190.17	4.169
190.17	4.162
190.17	4.155
190.17	4.148
190.26	4.176
190.34	4.183
190.34	4.189
190.51	4.196
190.6	4.202
190.6	4.208
190.68	4.215
190.77	4.221
190.85	4.227
190.94	4.238
190.94	4.233
191.02	4.244
191.11	4.255
191.11	4.25
191.28	4.261
191.36	4.266
191.45	4.272
191.53	4.277
191.62	4.282
191.7	4.288
191.7	4.293
191.79	4.298
191.87	4.303
191.96	4.313
191.96	4.308
192.04	4.318
192.13	4.323
192.22	4.327
192.3	4.332
192.39	4.337
192.47	4.346
192.47	4.341
192.56	4.35
192.64	4.355
192.73	4.359
192.81	4.364
192.9	4.368
192.98	4.372
193.07	4.377
193.24	4.385
193.24	4.381
193.41	4.389
193.41	4.393
193.58	4.397
193.66	4.401
193.75	4.405
193.83	4.409
193.92	4.413
194	4.417
194.09	4.421
194.17	4.424
194.35	4.428
194.43	4.432
194.52	4.436
194.6	4.439
194.77	4.443
194.86	4.447
195.03	4.45
195.03	4.454
195.2	4.457
195.37	4.461
195.45	4.464
195.54	4.468
195.71	4.471
195.79	4.474
195.96	4.478
196.05	4.481
196.13	4.484
196.3	4.488
196.48	4.494
196.48	4.491
196.65	4.497
196.82	4.5
196.99	4.504
197.07	4.507
197.24	4.51
197.33	4.513
197.58	4.516
197.75	4.519
197.84	4.522
198.09	4.525
198.09	4.528
198.35	4.531
198.52	4.534
198.78	4.537
199.03	4.54
199.29	4.543
199.71	4.545
200.31	4.547
201.08	4.547
201.67	4.545
202.1	4.543
202.35	4.54
202.7	4.538
202.87	4.535
203.04	4.532
203.12	4.529
203.29	4.526
203.46	4.523
203.72	4.52
203.89	4.517
204.06	4.514
204.23	4.511
204.48	4.508
204.65	4.505
204.83	4.502
205	4.498
205.17	4.495
205.42	4.492
205.59	4.489
205.76	4.486
205.93	4.482
206.1	4.479
206.27	4.476
206.53	4.473
206.7	4.469
206.87	4.466
207.04	4.462
207.21	4.459
207.38	4.455
207.47	4.452
207.64	4.448
207.89	4.445
208.06	4.441
208.23	4.438
208.4	4.434
208.66	4.43
208.83	4.426
209	4.423
209.17	4.419
209.43	4.415
209.51	4.412
209.77	4.408
210.02	4.404
210.19	4.4
210.36	4.396
210.62	4.393
210.87	4.388
211.04	4.384
211.3	4.381
211.56	4.377
211.64	4.372
211.9	4.368
212.15	4.364
212.41	4.36
212.66	4.356
212.83	4.352
213.09	4.348
213.35	4.344
213.52	4.339
213.86	4.335
214.03	4.33
214.37	4.326
214.62	4.322
214.88	4.317
215.13	4.312
215.39	4.308
215.65	4.303
215.9	4.298
216.16	4.294
216.41	4.29
216.75	4.285
217.01	4.28
217.35	4.276
217.69	4.271
218.03	4.266
218.37	4.261
218.71	4.256
219.14	4.251
219.48	4.246
219.91	4.242
220.33	4.237
220.76	4.232
221.27	4.227
221.78	4.223
222.21	4.218
222.72	4.213
223.14	4.208
223.57	4.204
224.08	4.199
224.51	4.193
225.02	4.188
225.36	4.182
225.87	4.177
226.3	4.172
226.72	4.165
227.15	4.16
227.49	4.154
227.91	4.148
228.26	4.142
228.68	4.136
229.11	4.129
229.36	4.122
229.79	4.116
230.04	4.109
230.47	4.103
230.81	4.096
231.24	4.089
231.58	4.082
231.92	4.074
232.26	4.067
232.6	4.059
233.03	4.052
233.37	4.044
233.79	4.037
234.22	4.029
234.65	4.02
235.07	4.013
235.5	4.005
235.92	3.996
236.43	3.988
236.86	3.98
237.37	3.972
237.88	3.965
238.39	3.957
238.99	3.95
239.5	3.942
240.01	3.934
240.61	3.926
241.29	3.92
241.89	3.913
242.4	3.905
243.08	3.901
243.68	3.892
244.36	3.886
245.13	3.882
245.89	3.877
246.66	3.876
247.43	3.873
248.19	3.872
248.96	3.872
249.73	3.875
250.49	3.877
251.17	3.883
251.94	3.885
252.71	3.886
253.48	3.885
254.24	3.883
255.01	3.882
255.69	3.876
256.37	3.872
257.14	3.867
257.91	3.862
258.67	3.858
259.44	3.853
260.21	3.855
260.97	3.859
261.65	3.865
262.34	3.87
263.02	3.876
263.7	3.883
264.47	3.886
265.06	3.893
265.66	3.901
266.17	3.909
266.6	3.92
266.77	3.932
266.94	3.943
267.11	3.955
267.36	3.966
267.53	3.976
267.96	3.986
268.47	3.993
269.15	3.989
269.66	3.981
269.92	3.972
270.17	3.962
270.43	3.952
270.69	3.941
270.94	3.93
271.2	3.92
271.45	3.909
271.71	3.898
271.96	3.885
272.3	3.873
272.9	3.864
273.5	3.872
273.92	3.883
274.26	3.895
274.61	3.906
275.12	3.916
275.63	3.925
276.31	3.929
276.91	3.922
277.33	3.913
277.59	3.902
277.76	3.889
277.93	3.876
278.1	3.862
278.35	3.849
278.52	3.834
278.78	3.819
279.04	3.804
279.21	3.787
279.46	3.772
279.72	3.755
279.97	3.737
280.23	3.72
280.48	3.703
280.74	3.685
281	3.666
281.34	3.647
281.59	3.626
282.02	3.604
282.27	3.581
282.61	3.557
282.96	3.532
283.38	3.505
283.81	3.48
284.06	3.449
284.32	3.416
284.74	3.385
285.26	3.356
285.77	3.326
286.19	3.287
286.62	3.239
287.22	3.198
287.81	3.153
288.49	3.112
289.17	3.076
289.86	3.047
290.54	3.005
291.3	2.971
291.99	2.933
292.75	2.892
293.52	2.863
294.29	2.831
295.05	2.796
295.82	2.778
296.59	2.739
297.35	2.697
298.12	2.697
298.89	2.674
