Uv/Vis Spectrum: 1,3-dihydro-4-phenyl-2H-1,5-benzodiazepin-2-one
Formula: C15H12N2O
CAS: 16439-95-5
Melting point: 205
Instrument: SF-16
Origin: INSTITUTE OF ENERGY PROBLEMS OF CHEMICAL PHYSICS, RAS
Wavelength (nm)	Logarithm epsilon
198.627	4.506
200.127	4.525
201.627	4.539
203.127	4.548
204.627	4.553
206.127	4.554
207.627	4.552
209.127	4.547
210.627	4.541
212.127	4.533
213.627	4.522
215.127	4.508
216.627	4.49
218.127	4.466
219.627	4.437
221.127	4.403
222.627	4.366
222.692	4.367
224.192	4.327
225.692	4.304
227.192	4.293
228.692	4.292
230.192	4.297
231.692	4.306
233.192	4.317
234.692	4.326
236.192	4.334
237.692	4.339
239.192	4.34
240.692	4.336
242.192	4.329
243.692	4.318
245.192	4.304
246.692	4.287
248.192	4.27
249.692	4.248
251.192	4.235
252.692	4.218
254.192	4.198
255.692	4.177
257.192	4.157
258.692	4.138
260.192	4.12
261.692	4.104
263.192	4.089
264.692	4.075
266.192	4.061
267.692	4.048
269.192	4.034
270.692	4.019
272.192	4.003
273.692	3.986
275.192	3.969
276.692	3.951
278.192	3.933
279.692	3.915
281.192	3.899
282.692	3.885
284.192	3.875
285.692	3.868
287.192	3.865
288.692	3.868
290.192	3.875
291.659	3.884
293.159	3.899
294.659	3.91
296.159	3.919
297.659	3.927
299.159	3.934
300.659	3.941
302.159	3.948
303.659	3.955
305.159	3.962
306.659	3.969
308.159	3.976
309.659	3.982
311.159	3.987
312.659	3.991
314.159	3.994
315.659	3.996
317.159	3.996
318.659	3.994
320.159	3.99
321.659	3.985
323.159	3.978
324.659	3.97
326.159	3.96
327.659	3.95
329.159	3.939
330.659	3.927
332.159	3.914
333.659	3.902
335.159	3.89
335.68	3.887
337.18	3.873
338.68	3.859
340.18	3.845
341.68	3.83
343.18	3.815
344.68	3.8
346.18	3.785
347.68	3.77
349.18	3.755
350.68	3.739
352.18	3.723
353.68	3.706
355.18	3.689
356.68	3.672
358.18	3.654
359.68	3.635
361.18	3.616
362.68	3.596
364.18	3.576
365.68	3.555
367.18	3.534
368.68	3.512
370.18	3.491
371.68	3.468
373.18	3.446
374.68	3.423
376.18	3.399
377.68	3.374
379.18	3.348
380.68	3.32
382.18	3.288
383.68	3.253
385.18	3.214
