Uv/Vis Spectrum: 2H-azirine, 2,3-diphenyl-
Formula: C14H11N
CAS: 16483-98-0
Melting point: 60-62
Instrument: unknown
Origin: INSTITUTE OF ENERGY PROBLEMS OF CHEMICAL PHYSICS, RAS
Wavelength (nm)	Logarithm epsilon
217.404	4.127
218.404	4.13
219.404	4.136
220.404	4.139
221.404	4.139
222.404	4.135
223.404	4.128
224.404	4.119
225.404	4.11
226.404	4.105
227.404	4.104
228.404	4.109
229.404	4.122
230.404	4.142
231.404	4.165
232.446	4.185
233.446	4.214
234.446	4.238
235.446	4.26
236.446	4.279
237.446	4.297
238.446	4.315
239.446	4.33
240.446	4.344
241.446	4.356
242.446	4.365
243.446	4.369
244.446	4.369
245.446	4.364
246.446	4.353
247.446	4.335
248.446	4.312
249.446	4.284
250.446	4.251
251.329	4.219
252.329	4.185
253.329	4.146
254.329	4.101
255.329	4.053
256.329	4.003
257.329	3.954
258.329	3.905
259.329	3.858
260.329	3.813
261.329	3.77
262.329	3.727
263.329	3.682
264.329	3.633
265.329	3.575
266.53	3.511
267.53	3.461
268.53	3.415
269.53	3.375
270.53	3.342
271.53	3.315
272.53	3.296
273.53	3.281
274.53	3.271
275.53	3.262
276.53	3.252
277.253	3.237
278.253	3.225
279.253	3.22
280.253	3.217
281.253	3.215
282.253	3.211
283.253	3.203
284.253	3.191
285.253	3.173
286.253	3.152
287.253	3.127
288.253	3.1
289.253	3.073
290.253	3.048
291.175	3.029
292.175	3.02
293.175	3.015
294.175	3.013
295.175	3.013
296.175	3.012
297.175	3.011
298.175	3.009
299.175	3.006
300.175	3
301.175	2.992
302.175	2.981
303.175	2.969
304.175	2.954
305.175	2.936
306.175	2.917
307.175	2.896
308.175	2.874
309.175	2.85
310.175	2.826
311.175	2.8
312.175	2.775
313.175	2.749
314.175	2.723
315.175	2.697
316.175	2.67
317.175	2.642
318.175	2.613
319.175	2.582
