Uv/Vis Spectrum: 2H-Benzotriazole, 2-methyl-
Formula: C7H7N3
CAS: 16584-00-2
Instrument: n.i.g.
Origin: INSTITUTE OF ENERGY PROBLEMS OF CHEMICAL PHYSICS, RAS
Wavelength (nm)	Logarithm epsilon
237.52	2.814
237.68	2.818
237.83	2.827
237.99	2.831
238.14	2.836
238.3	2.844
238.45	2.85
238.61	2.857
238.76	2.861
238.92	2.873
239.08	2.879
239.23	2.883
239.42	2.892
239.55	2.896
239.7	2.9
239.86	2.904
240.02	2.913
240.18	2.917
240.34	2.926
240.49	2.93
240.65	2.939
240.81	2.943
240.97	2.947
241.13	2.956
241.29	2.965
241.45	2.973
241.61	2.978
241.77	2.982
241.93	2.986
242.09	2.995
242.25	3.003
242.41	3.008
242.57	3.016
242.73	3.025
242.92	3.036
243.05	3.042
243.23	3.051
243.38	3.059
243.54	3.063
243.7	3.072
243.87	3.076
244.03	3.081
244.17	3.087
244.35	3.094
244.51	3.101
244.68	3.106
244.85	3.111
245.01	3.119
245.18	3.124
245.34	3.128
245.5	3.132
245.67	3.137
245.84	3.141
246	3.145
246.17	3.149
246.33	3.158
246.5	3.171
246.67	3.18
246.83	3.188
247	3.192
247.17	3.197
247.33	3.205
247.54	3.21
247.67	3.214
247.84	3.218
248.01	3.223
248.17	3.231
248.34	3.235
248.51	3.24
248.69	3.245
248.85	3.253
249.04	3.263
249.19	3.27
249.36	3.278
249.5	3.286
249.7	3.291
249.88	3.3
250.03	3.305
250.22	3.307
250.39	3.313
250.56	3.317
250.73	3.326
250.9	3.334
251.07	3.339
251.25	3.347
251.42	3.352
251.59	3.36
251.81	3.367
251.99	3.372
252.11	3.377
252.29	3.382
252.5	3.388
252.64	3.395
252.85	3.404
252.99	3.412
253.16	3.42
253.34	3.425
253.5	3.432
253.69	3.44
253.85	3.446
254.04	3.455
254.25	3.463
254.4	3.468
254.57	3.472
254.76	3.48
254.93	3.485
255.11	3.489
255.29	3.493
255.43	3.497
255.64	3.502
255.82	3.506
256	3.511
256.18	3.515
256.36	3.52
256.52	3.525
256.72	3.532
256.9	3.536
257.06	3.544
257.27	3.551
257.44	3.558
257.63	3.566
257.81	3.575
257.99	3.582
258.17	3.588
258.33	3.594
258.52	3.599
258.72	3.605
258.9	3.609
259.09	3.614
259.27	3.616
259.46	3.618
259.64	3.618
259.83	3.618
260.01	3.618
260.2	3.618
260.38	3.618
260.58	3.616
260.75	3.611
260.92	3.606
261.14	3.6
261.32	3.594
261.5	3.588
261.69	3.581
261.87	3.575
262.06	3.569
262.24	3.564
262.44	3.558
262.6	3.552
262.74	3.547
262.95	3.54
263.2	3.532
263.37	3.526
263.58	3.519
263.72	3.515
263.96	3.508
264.11	3.505
264.34	3.502
264.53	3.502
264.72	3.502
264.91	3.502
265.1	3.504
265.29	3.505
265.49	3.506
265.68	3.511
265.88	3.515
266.07	3.519
266.27	3.523
266.46	3.532
266.65	3.536
266.83	3.544
267.05	3.55
267.24	3.558
267.44	3.566
267.63	3.571
267.83	3.575
268.02	3.575
268.22	3.575
268.42	3.575
268.62	3.566
268.81	3.545
269	3.525
269.21	3.502
269.41	3.485
269.61	3.468
269.81	3.455
270.01	3.442
270.21	3.431
270.41	3.42
270.6	3.412
270.81	3.399
271.01	3.386
271.21	3.374
271.41	3.364
271.62	3.35
271.81	3.339
272.02	3.326
272.22	3.317
272.42	3.309
272.63	3.3
272.83	3.296
273.03	3.291
273.24	3.287
273.44	3.283
273.68	3.281
273.85	3.28
274.06	3.278
274.26	3.278
274.47	3.278
274.68	3.278
274.88	3.278
275.09	3.28
275.3	3.283
275.54	3.289
275.75	3.293
275.99	3.301
276.21	3.307
276.38	3.311
276.55	3.317
276.79	3.324
276.97	3.33
277.19	3.339
277.39	3.347
277.58	3.354
277.79	3.363
278.02	3.369
278.22	3.373
278.44	3.377
278.66	3.382
278.87	3.382
278.99	3.379
279.09	3.372
279.3	3.36
279.51	3.352
279.67	3.346
279.94	3.343
280.15	3.343
280.37	3.343
280.58	3.343
280.79	3.344
281.02	3.347
281.22	3.357
281.46	3.371
281.67	3.386
281.89	3.399
282.11	3.412
282.32	3.425
282.54	3.438
282.75	3.447
282.97	3.457
283.19	3.463
283.41	3.463
283.63	3.455
283.85	3.446
284.08	3.438
284.3	3.433
284.52	3.429
284.74	3.429
284.96	3.429
285.18	3.429
285.41	3.429
285.63	3.433
285.85	3.441
286.1	3.458
286.3	3.476
286.53	3.498
286.75	3.515
286.98	3.532
287.18	3.548
287.38	3.566
287.59	3.585
287.81	3.604
288.11	3.622
288.34	3.631
288.56	3.635
288.79	3.634
289.02	3.622
289.25	3.609
289.48	3.605
289.69	3.603
289.94	3.601
290.17	3.601
290.4	3.601
290.63	3.601
290.87	3.603
291.09	3.605
291.32	3.61
291.55	3.616
291.79	3.622
292	3.63
292.28	3.64
292.53	3.651
292.75	3.66
292.96	3.67
293.2	3.683
293.43	3.696
293.67	3.708
293.92	3.722
294.18	3.733
294.37	3.742
294.59	3.75
294.81	3.756
295.09	3.76
295.32	3.758
295.61	3.749
295.86	3.737
296.08	3.721
296.29	3.708
296.53	3.687
296.64	3.668
296.7	3.654
296.77	3.64
296.92	3.631
297.25	3.622
297.47	3.618
297.74	3.616
297.98	3.618
298.22	3.622
298.47	3.627
298.75	3.638
298.96	3.652
299.2	3.67
299.45	3.678
299.69	3.678
299.94	3.676
300.22	3.668
300.46	3.655
300.68	3.644
300.93	3.627
301.16	3.614
301.42	3.605
301.67	3.601
301.92	3.595
302.17	3.579
302.31	3.558
302.36	3.545
302.45	3.53
302.67	3.519
302.88	3.513
303.11	3.507
303.39	3.501
303.68	3.498
303.93	3.498
304.18	3.498
304.44	3.498
304.73	3.504
304.95	3.515
305.12	3.53
305.23	3.543
305.32	3.554
305.43	3.562
305.6	3.574
305.85	3.581
306.23	3.579
306.48	3.562
306.74	3.532
306.98	3.49
307.26	3.435
307.51	3.381
307.74	3.334
308.03	3.275
308.32	3.219
308.55	3.175
308.81	3.115
309.08	3.042
309.34	2.978
309.61	2.923
309.83	2.872
310.11	2.808
310.39	2.745
310.65	2.698
310.9	2.654
311.18	2.595
311.46	2.538
311.72	2.481
311.93	2.434
312.24	2.37
312.51	2.315
312.78	2.255
313.05	2.191
313.31	2.143
313.6	2.079
313.86	2.032
314.11	1.985
314.38	1.941
314.67	1.881
314.94	1.821
315.21	1.752
315.48	1.692
315.76	1.632
316.03	1.573
316.3	1.513
316.58	1.456
316.83	1.402
