Uv/Vis Spectrum: 1,1'-Spirobi[1H-indene]
Formula: C17H12
CAS: 165-42-4
Boiling point: 135/ 0.05 mm
Instrument: Cary 15
Origin: INSTITUTE OF ENERGY PROBLEMS OF CHEMICAL PHYSICS, RAS
Wavelength (nm)	Logarithm epsilon
200.27	4.462
200.27	4.464
200.6	4.463
201.28	4.469
201.78	4.477
202.29	4.483
202.79	4.489
203.3	4.494
203.8	4.5
204.31	4.505
204.81	4.508
205.32	4.507
205.82	4.502
206.33	4.497
206.83	4.485
207.34	4.473
207.84	4.461
208.35	4.45
208.85	4.442
209.36	4.433
209.86	4.425
210.37	4.415
210.87	4.409
211.38	4.403
211.88	4.398
212.39	4.395
212.89	4.391
213.4	4.388
213.9	4.388
214.41	4.389
214.91	4.391
215.42	4.395
215.92	4.399
216.43	4.402
216.93	4.407
217.44	4.413
217.94	4.416
218.45	4.424
218.95	4.429
219.46	4.432
219.96	4.438
220.47	4.443
220.97	4.447
221.48	4.453
221.98	4.458
222.49	4.464
222.99	4.469
223.5	4.476
224	4.482
224.5	4.489
225.01	4.494
225.51	4.504
226.02	4.511
226.52	4.521
227.03	4.527
227.53	4.524
228.04	4.52
228.54	4.518
229.05	4.514
229.55	4.514
230.06	4.515
230.56	4.516
231.07	4.52
231.57	4.523
232.08	4.526
232.58	4.529
233.09	4.529
233.59	4.524
234.1	4.511
234.6	4.497
235.95	4.444
236.46	4.421
236.96	4.405
237.47	4.385
237.97	4.362
238.48	4.342
238.98	4.32
239.49	4.295
239.99	4.271
240.5	4.247
241	4.221
241.5	4.197
242.01	4.163
242.51	4.139
243.02	4.112
243.52	4.095
244.03	4.069
244.53	4.04
245.04	4.013
245.54	3.993
246.05	3.965
246.55	3.935
247.06	3.914
247.56	3.888
248.07	3.869
248.57	3.842
249.08	3.818
249.58	3.785
250.09	3.761
250.59	3.742
251.1	3.718
251.6	3.703
252.11	3.679
252.61	3.66
253.12	3.654
253.62	3.647
254.13	3.644
254.63	3.654
255.14	3.657
255.64	3.66
256.15	3.673
256.65	3.686
257.16	3.695
257.66	3.712
258.17	3.729
258.67	3.737
259.18	3.748
259.68	3.761
260.19	3.763
260.69	3.766
261.2	3.763
261.7	3.771
262.21	3.776
262.71	3.785
263.22	3.793
263.72	3.797
264.23	3.807
264.73	3.816
265.24	3.822
265.74	3.836
266.25	3.846
266.75	3.854
268.1	3.873
269.61	3.875
270.62	3.863
271.47	3.848
272.81	3.84
274.33	3.842
275.67	3.853
277.02	3.863
278.2	3.853
279.04	3.838
279.88	3.82
280.39	3.802
280.89	3.783
281.56	3.763
282.07	3.742
282.57	3.72
283.25	3.697
284.09	3.673
285.1	3.651
286.45	3.637
287.79	3.647
289.31	3.651
290.49	3.631
291.5	3.609
292	3.579
292.67	3.547
293.35	3.512
293.85	3.474
294.36	3.433
294.86	3.381
295.37	3.329
295.6	3.316
296	3.31
296.5	3.314
296.88	3.322
297.72	3.369
298	3.377
298.5	3.38
298.7	3.374
299.07	3.343
299.57	3.286
300.25	3.22
301.09	3.142
301.93	3.061
302.6	2.944
303.61	2.829
304.62	2.641
305.8	2.429
