Uv/Vis Spectrum: 2(1H)-Pyrimidinethione, tetrahydro-1,3-dimethyl-
Formula: C6H12N2S
CAS: 16597-35-6
Melting point: 223
Instrument: n.i.g.
Origin: INSTITUTE OF ENERGY PROBLEMS OF CHEMICAL PHYSICS, RAS
Wavelength (nm)	Logarithm epsilon
204.93	2.815
205.08	2.819
205.35	2.825
205.54	2.83
205.71	2.835
206.27	2.851
206.83	2.869
207.39	2.888
207.94	2.906
208.53	2.923
209.07	2.929
209.63	2.931
210.19	2.93
210.75	2.927
211.31	2.922
211.87	2.913
212.43	2.905
212.99	2.896
213.55	2.888
214.11	2.878
214.67	2.87
215.19	2.862
215.79	2.851
216.35	2.838
216.91	2.828
217.47	2.815
218.03	2.804
218.59	2.794
219.15	2.781
219.71	2.768
220.22	2.757
220.83	2.742
221.39	2.73
221.95	2.716
222.5	2.702
223.07	2.685
223.63	2.67
224.19	2.653
224.75	2.639
225.87	2.601
226.43	2.583
226.99	2.564
227.55	2.547
228.11	2.537
228.67	2.533
229.23	2.529
229.79	2.529
230.35	2.532
230.91	2.534
231.47	2.545
232.03	2.56
232.59	2.574
233.15	2.595
233.71	2.619
234.27	2.643
234.83	2.668
235.39	2.697
235.95	2.713
236.51	2.745
237.07	2.777
237.63	2.804
238.19	2.826
238.75	2.85
239.31	2.873
239.87	2.898
240.43	2.919
240.99	2.94
241.54	2.956
242.1	2.974
242.66	2.992
243.22	3.008
243.78	3.022
244.34	3.033
244.9	3.049
245.46	3.061
246.02	3.07
246.58	3.086
247.14	3.097
247.7	3.108
248.26	3.121
248.82	3.127
249.38	3.134
249.94	3.143
250.5	3.145
251.06	3.146
251.62	3.146
252.18	3.143
252.74	3.135
253.3	3.123
253.86	3.112
254.42	3.096
254.98	3.081
255.54	3.065
256.1	3.046
256.66	3.025
257.22	3.006
257.78	2.986
258.34	2.968
258.9	2.954
259.46	2.934
260.02	2.911
260.58	2.885
261.14	2.856
261.7	2.825
262.26	2.788
262.82	2.751
263.38	2.711
263.94	2.668
264.5	2.626
265.06	2.594
265.62	2.557
266.18	2.519
266.74	2.487
267.3	2.45
267.86	2.419
268.42	2.381
268.98	2.35
269.54	2.328
270.1	2.293
270.66	2.26
271.2	2.231
271.78	2.196
272.34	2.164
272.9	2.134
273.43	2.101
274.02	2.058
274.58	2.023
275.12	1.996
275.7	1.96
276.22	1.931
276.82	1.892
277.3	1.864
277.73	1.837
278.36	1.808
279.12	1.774
280.02	1.734
280.74	1.694
281.3	1.665
281.86	1.632
282.42	1.598
282.88	1.571
283.54	1.533
284.1	1.504
284.6	1.469
285.17	1.431
285.78	1.385
