Uv/Vis Spectrum: 2,3-dihydro-3-phenyl-1H-inden-1-one
Formula: C15H12O
CAS: 16618-72-7
Melting point: 78
Instrument: Zeiss VSU
Origin: INSTITUTE OF ENERGY PROBLEMS OF CHEMICAL PHYSICS, RAS
Wavelength (nm)	Logarithm epsilon
217.763	4.099
219.263	4.081
220.763	4.024
222.263	3.956
223.763	3.894
225.263	3.851
226.763	3.832
228.263	3.835
229.763	3.857
231.252	3.891
232.752	3.924
234.252	3.962
235.752	4.001
237.252	4.037
238.752	4.067
240.252	4.092
241.752	4.108
243.252	4.115
244.74	4.114
245.74	4.104
246.74	4.098
247.74	4.087
248.74	4.066
249.74	4.031
250.74	3.983
251.708	3.93
252.708	3.878
253.708	3.826
254.708	3.773
255.708	3.715
256.708	3.649
257.708	3.571
258.708	3.48
259.708	3.378
260.708	3.272
261.708	3.174
262.708	3.106
262.815	3.1
264.315	3.032
265.815	3.005
267.315	3.003
268.815	3.014
270.315	3.035
271.815	3.063
273.315	3.098
274.815	3.143
274.82	3.143
276.32	3.196
277.82	3.249
279.271	3.295
280.271	3.32
281.271	3.344
282.271	3.367
283.271	3.388
284.271	3.405
285.271	3.42
286.271	3.432
287.271	3.441
288.271	3.447
289.271	3.45
290.271	3.451
291.271	3.45
292.271	3.446
293.271	3.44
294.271	3.432
295.271	3.42
296.271	3.405
297.271	3.384
298.271	3.357
299.927	3.27
300.853	3.182
301.853	3.081
302.853	2.994
303.686	2.936
