Uv/Vis Spectrum: 1,2-Ethanediamine, N-phenyl-
Formula: C8H12N2
CAS: 1664-40-0
Instrument: unknown
Origin: INSTITUTE OF ENERGY PROBLEMS OF CHEMICAL PHYSICS, RAS
Wavelength (nm)	Logarithm epsilon
231.27	1.88
231.35	1.883
231.43	1.883
231.51	1.883
231.59	1.883
231.68	1.883
231.76	1.883
231.84	1.886
231.92	1.886
232	1.886
232.08	1.886
232.25	1.883
232.57	1.889
232.9	1.897
233.23	1.903
233.56	1.906
233.88	1.914
234.21	1.919
234.54	1.925
234.86	1.93
235.19	1.94
235.52	1.946
235.84	1.956
236.17	1.96
236.5	1.97
236.82	1.98
237.15	1.989
237.48	1.998
237.8	2.002
238.13	2.007
238.46	2.015
238.78	2.022
239.11	2.03
239.44	2.034
239.76	2.042
240.09	2.05
240.42	2.06
240.74	2.066
241.07	2.075
241.4	2.081
241.72	2.088
242.05	2.096
242.38	2.103
242.7	2.108
243.03	2.113
243.36	2.116
243.68	2.12
244.01	2.123
244.34	2.13
244.67	2.138
244.99	2.149
245.32	2.163
245.65	2.187
245.97	2.207
246.3	2.224
246.63	2.245
246.95	2.256
247.28	2.26
247.61	2.259
247.93	2.25
248.26	2.241
248.59	2.235
248.91	2.23
249.24	2.226
249.57	2.228
249.89	2.234
250.22	2.244
250.55	2.259
250.87	2.277
251.2	2.293
251.53	2.308
251.85	2.325
252.18	2.339
252.51	2.351
252.83	2.355
253.16	2.353
253.49	2.346
253.81	2.333
254.14	2.311
254.47	2.292
254.79	2.27
255.12	2.26
255.45	2.258
255.78	2.261
256.1	2.266
256.43	2.27
256.76	2.266
257.08	2.264
257.41	2.259
257.74	2.252
258.06	2.248
258.39	2.247
258.72	2.244
259.04	2.236
259.37	2.211
259.7	2.183
260.02	2.141
260.35	2.106
260.68	2.056
261	2.026
261.33	2.013
261.66	2.011
261.98	2.028
262.31	2.052
262.64	2.056
262.96	2.044
263.29	1.998
263.62	1.948
263.94	1.892
264.27	1.84
264.6	1.771
264.92	1.701
265.25	1.624
265.58	1.561
265.9	1.516
266.23	1.45
266.56	1.409
266.89	1.373
267.21	1.312
267.54	1.266
267.87	1.228
268.19	1.187
268.52	1.108
268.85	1.072
269.17	1.032
269.5	0.965
269.83	0.886
270.15	0.856
270.48	0.824
270.81	0.789
271.13	0.751
271.46	0.664
271.79	0.664
