Uv/Vis Spectrum: 1-Propanethiol, 2,2-dimethyl-
Formula: C5H12S
CAS: 1679-08-9
Instrument: unknown
Origin: INSTITUTE OF ENERGY PROBLEMS OF CHEMICAL PHYSICS, RAS
Wavelength (nm)	Logarithm epsilon
209.68	2.14
209.85	2.138
210.02	2.138
210.19	2.135
210.36	2.135
210.53	2.133
210.7	2.131
210.87	2.131
211.04	2.129
211.21	2.129
211.38	2.127
211.55	2.127
211.72	2.125
211.89	2.123
212.06	2.123
212.23	2.121
212.4	2.121
212.57	2.119
212.74	2.119
212.91	2.117
213.08	2.115
213.25	2.115
213.42	2.113
213.59	2.113
213.76	2.11
213.93	2.11
214.1	2.108
214.27	2.106
214.44	2.106
214.61	2.104
214.78	2.104
215.12	2.096
215.79	2.094
216.47	2.085
217.15	2.081
217.83	2.075
218.51	2.067
219.19	2.063
219.87	2.056
220.55	2.05
221.23	2.044
221.91	2.04
222.59	2.033
223.27	2.025
223.95	2.017
224.63	2.006
225.3	2.002
225.98	1.994
226.66	1.983
227.34	1.975
228.02	1.965
228.7	1.954
229.38	1.942
230.06	1.929
230.74	1.917
231.42	1.906
232.1	1.896
232.78	1.879
233.46	1.867
234.14	1.856
234.82	1.84
235.49	1.829
236.17	1.811
236.85	1.796
237.53	1.779
238.21	1.761
238.89	1.744
239.57	1.727
240.25	1.706
240.93	1.69
241.61	1.669
242.29	1.652
242.97	1.631
243.65	1.611
244.33	1.59
245.01	1.563
245.68	1.542
246.36	1.513
247.04	1.492
247.72	1.463
248.4	1.44
249.08	1.415
249.76	1.388
250.44	1.365
251.12	1.338
251.8	1.319
252.48	1.294
253.16	1.269
253.84	1.246
254.52	1.223
255.2	1.196
255.87	1.175
256.55	1.157
257.23	1.134
257.91	1.109
258.59	1.088
259.27	1.067
259.95	1.046
260.63	1.025
261.31	1.007
261.99	0.992
262.67	0.975
263.35	0.954
264.03	0.934
264.71	0.913
265.39	0.896
266.06	0.877
266.74	0.857
267.42	0.838
268.1	0.825
268.78	0.807
269.46	0.792
270.14	0.775
270.82	0.757
271.5	0.742
272.18	0.725
272.86	0.713
273.54	0.696
274.22	0.684
274.9	0.671
275.58	0.655
276.25	0.644
276.93	0.632
277.61	0.617
278.29	0.605
278.97	0.592
