Uv/Vis Spectrum: 1,2-Dimethylcyclohexene
Formula: C8H14
CAS: 1674-10-8
Melting point: -84.1
Boiling point: 138
Instrument: Beckman DU
Origin: INSTITUTE OF ENERGY PROBLEMS OF CHEMICAL PHYSICS, RAS
Wavelength (nm)	Logarithm epsilon
202.112	2.99715
202.13	2.9997
202.15	3.00224
202.169	3.00395
202.187	3.00566
202.375	3.0253
202.395	3.02769
202.414	3.02931
202.432	3.03168
202.452	3.03319
202.47	3.03554
202.488	3.03713
202.508	3.0402
202.527	3.04177
202.545	3.04251
202.77	3.06941
202.791	3.07226
202.809	3.07372
202.827	3.07586
202.847	3.07722
202.866	3.07799
203.09	3.10475
203.109	3.10611
203.126	3.10873
203.147	3.1107
203.165	3.11266
203.351	3.13437
203.371	3.13683
203.389	3.13868
203.407	3.14111
203.576	3.15853
203.594	3.16029
203.614	3.16267
203.632	3.16378
203.876	3.18369
203.897	3.18429
203.915	3.18595
203.933	3.1876
203.953	3.18866
203.971	3.1903
203.989	3.19194
204.01	3.19363
204.028	3.19526
204.196	3.21166
204.214	3.21322
204.232	3.21477
204.252	3.21688
204.27	3.21842
204.288	3.21995
204.309	3.22148
204.42	3.23298
204.439	3.23351
204.457	3.23399
204.477	3.23594
204.495	3.23794
204.513	3.23988
204.533	3.24087
204.719	3.25759
204.738	3.25854
204.758	3.26038
204.775	3.26222
204.793	3.26361
204.814	3.26549
204.831	3.2673
205.056	3.28437
205.075	3.28527
205.093	3.28658
205.113	3.28743
205.131	3.28832
205.149	3.28921
205.17	3.29051
205.188	3.29135
205.452	3.30462
205.472	3.30547
205.49	3.30628
205.509	3.30673
205.529	3.30754
205.566	3.30879
205.586	3.30964
205.774	3.32033
205.792	3.32115
205.813	3.32193
205.831	3.32237
205.849	3.32314
205.87	3.32358
205.907	3.32479
205.946	3.32599
205.964	3.32638
205.985	3.32677
206.289	3.33632
206.308	3.3367
206.326	3.33708
206.347	3.3375
206.383	3.33867
206.404	3.33905
206.422	3.33942
206.767	3.34794
206.976	3.35214
206.997	3.35251
207.015	3.35251
207.034	3.35287
207.073	3.35364
207.245	3.35814
207.263	3.35815
207.302	3.35926
207.321	3.35962
207.36	3.36003
207.378	3.36003
207.397	3.36039
207.417	3.36074
207.454	3.3615
207.475	3.36151
207.551	3.36297
207.838	3.36887
207.878	3.36923
207.935	3.36997
207.972	3.37032
208.012	3.37033
208.049	3.37107
208.07	3.37108
208.127	3.37182
208.164	3.37217
208.898	3.37731
209.052	3.37695
209.091	3.37662
209.189	3.3763
209.595	3.37424
209.616	3.37385
209.653	3.37352
209.674	3.37318
209.732	3.37246
210.18	3.36531
210.239	3.36387
210.258	3.36348
210.298	3.36239
210.317	3.36204
210.338	3.3613
210.671	3.35133
210.711	3.3502
210.73	3.34985
210.749	3.34872
210.77	3.34795
210.789	3.34718
210.808	3.34682
210.83	3.34531
210.848	3.34491
210.867	3.34418
210.889	3.34303
210.949	3.33916
211.067	3.33532
211.086	3.33453
211.105	3.33336
211.127	3.33218
211.146	3.33101
211.165	3.32983
211.186	3.32864
211.205	3.32784
211.384	3.31907
211.403	3.31825
211.422	3.31786
211.443	3.31626
211.462	3.31543
211.482	3.3142
211.503	3.31337
211.522	3.31215
211.838	3.29801
211.859	3.29715
211.878	3.29628
211.897	3.29541
211.918	3.2946
211.937	3.29372
211.956	3.29244
211.978	3.29156
211.996	3.29074
212.015	3.29028
212.035	3.28856
212.254	3.27715
212.293	3.27582
212.332	3.27405
212.353	3.27271
212.372	3.27179
212.391	3.27087
212.412	3.27001
212.431	3.26865
212.45	3.26773
212.471	3.26729
212.491	3.26543
212.51	3.26456
212.806	3.25057
212.825	3.24915
212.846	3.2487
212.865	3.24774
212.884	3.24682
212.906	3.24585
212.924	3.24488
212.944	3.24396
212.984	3.242
213.003	3.24154
213.024	3.24056
213.043	3.23963
213.083	3.23765
213.376	3.22536
213.397	3.22434
213.416	3.22331
213.435	3.22283
213.456	3.2218
213.475	3.22084
213.494	3.2198
213.516	3.21877
213.535	3.2178
213.553	3.21725
213.575	3.21621
213.594	3.21523
213.613	3.21418
213.634	3.21313
213.672	3.21159
213.949	3.19801
213.989	3.19583
214.008	3.19532
214.027	3.19422
214.046	3.19313
214.086	3.19151
214.105	3.19047
214.145	3.18885
214.164	3.18773
214.185	3.18662
214.204	3.1861
214.223	3.18498
214.244	3.18393
214.263	3.1828
214.282	3.18168
214.576	3.1711
214.616	3.17049
214.635	3.1694
214.694	3.16708
214.712	3.16653
214.734	3.16536
214.752	3.16482
214.771	3.16427
214.811	3.16254
215.105	3.15262
215.164	3.15028
215.183	3.14964
215.204	3.14907
215.223	3.14785
215.242	3.1467
215.263	3.14606
215.3	3.14549
215.319	3.14426
215.34	3.14303
215.693	3.1302
215.712	3.129
215.752	3.12834
215.77	3.12774
215.848	3.12458
215.869	3.12398
215.907	3.12209
216.124	3.11053
216.162	3.10984
216.183	3.10921
216.202	3.10859
216.242	3.10663
216.26	3.10592
216.279	3.10529
216.319	3.10331
216.338	3.10268
216.789	3.08579
216.848	3.08306
216.867	3.08231
216.906	3.08165
216.984	3.07814
217.453	3.06176
217.472	3.06036
217.53	3.05888
217.549	3.05817
217.57	3.05739
217.589	3.05668
217.666	3.05448
217.746	3.05074
218.331	3.02622
218.352	3.02547
218.39	3.02472
218.47	3.02071
218.488	3.01994
218.507	3.01908
218.528	3.01831
218.606	3.01425
219.036	2.99437
219.094	2.99265
219.113	2.99183
219.134	2.99101
219.153	2.99009
219.193	2.98751
219.212	2.98668
219.231	2.98585
219.252	2.98492
219.289	2.98409
219.308	2.98326
219.329	2.98148
219.366	2.98065
219.876	2.95627
219.895	2.95448
219.953	2.95259
219.972	2.95169
220.031	2.94786
220.052	2.94695
220.071	2.94604
220.09	2.94502
220.111	2.94411
220.716	2.91153
220.736	2.90942
220.775	2.90844
220.794	2.90732
220.813	2.90633
220.834	2.90533
220.853	2.90421
220.951	2.90007
220.97	2.89906
220.989	2.8969
221.751	2.85573
221.791	2.85462
221.809	2.8535
221.868	2.85111
221.964	2.84397
222.023	2.84154
222.044	2.84038
222.121	2.83794
223	2.78789
223.058	2.78512
223.077	2.7838
223.175	2.77834
223.194	2.77683
223.271	2.77263
223.37	2.76406
223.407	2.76269
223.897	2.73433
223.934	2.73287
223.953	2.73138
223.993	2.72972
224.051	2.72673
224.07	2.72504
224.149	2.7203
224.208	2.71725
224.695	2.68565
224.753	2.68213
224.772	2.68046
224.791	2.67878
224.831	2.6769
224.849	2.67521
224.908	2.67161
224.929	2.6699
224.948	2.66818
224.988	2.66626
225.065	2.66084
225.629	2.62305
225.65	2.62089
225.687	2.61899
225.745	2.61489
225.767	2.61294
225.804	2.61075
225.881	2.60458
226.195	2.57227
226.233	2.57014
226.273	2.56799
226.331	2.56338
226.371	2.56121
226.389	2.55872
226.429	2.55652
226.466	2.55431
226.506	2.55181
226.525	2.54955
