Uv/Vis Spectrum: 3,5-Di-1-pyrrolidinyl-phenol
Formula: C14H20N2O
CAS: 16857-92-4
Melting point: 174-185
Instrument: unknown
Origin: INSTITUTE OF ENERGY PROBLEMS OF CHEMICAL PHYSICS, RAS
Wavelength (nm)	Logarithm epsilon
214.084	3.95
216.084	3.978
218.084	4.012
220.084	4.058
222.084	4.118
224.084	4.191
226.084	4.271
228.084	4.352
230.084	4.43
232.084	4.498
234.084	4.55
236.084	4.583
238.084	4.596
240.084	4.589
242.084	4.562
244.084	4.522
246.084	4.472
248.084	4.42
250.084	4.373
252.112	4.327
254.112	4.286
256.112	4.247
258.112	4.209
260.112	4.172
262.112	4.135
264.112	4.098
266.112	4.059
268.112	4.018
270.112	3.975
272.112	3.929
274.112	3.881
276.112	3.831
278.112	3.782
280.112	3.736
282.112	3.698
284.112	3.673
286.112	3.669
288.925	3.678
290.925	3.69
292.925	3.705
294.925	3.722
297.416	3.73
299.529	3.716
300.925	3.676
302.925	3.569
304.925	3.391
306.925	3.168
307.275	3.144
309.275	3.009
311.275	2.881
313.275	2.767
315.275	2.674
317.275	2.604
319.275	2.559
321.275	2.54
323.275	2.544
325.275	2.568
327.275	2.606
329.275	2.652
331.275	2.696
333.096	2.738
334.74	2.776
336.618	2.818
338.618	2.867
340.618	2.915
342.618	2.961
344.618	3.007
346.618	3.051
348.618	3.094
350.618	3.135
352.618	3.175
354.618	3.212
356.618	3.248
358.618	3.281
360.618	3.311
362.618	3.339
364.618	3.364
366.618	3.385
368.618	3.402
370.618	3.415
372.618	3.424
374.618	3.429
376.618	3.428
378.618	3.422
380.618	3.41
382.618	3.393
384.618	3.368
386.618	3.337
388.618	3.298
