Uv/Vis Spectrum: 2-Methoxythiophene
Formula: C5H6OS
CAS: 16839-97-7
Boiling point: 153-155
Instrument: Beckman spectrometer
Origin: INSTITUTE OF ENERGY PROBLEMS OF CHEMICAL PHYSICS, RAS
Wavelength (nm)	Logarithm epsilon
220	3.5
221	3.51
222	3.53
223	3.53
224	3.54
225	3.55
226	3.55
227	3.56
228	3.56
229	3.57
230	3.57001
231	3.57
232	3.57
233	3.57
234	3.58
235	3.58
236	3.58
237	3.59
238	3.61
239	3.62
240	3.63
241	3.64
242	3.65
243	3.65
244	3.66
245	3.66
246	3.66
247	3.65
248	3.65
249	3.63
250	3.62
251	3.6
252	3.59
253	3.56
254	3.54
255	3.5
256	3.47
257	3.43
258	3.37
259	3.33
260	3.27
261	3.2
262	3.12
263	3.05
264	2.94
265	2.85
266	2.76
267	2.68
268	2.58
269	2.49
270	2.4
271	2.29
272	2.19
273	2.08
274	2.01
275	1.91
276	1.84
277	1.77
278	1.71
279	1.65
280	1.59
281	1.53
282	1.47
283	1.41
284	1.36
285	1.3
286	1.25
287	1.2
288	1.14
289	1.11
