Uv/Vis Spectrum: 1-propyl-1H-indole
Formula: C11H13N
CAS: 16885-94-2
Boiling point: 265
Instrument: Cary 15
Origin: INSTITUTE OF ENERGY PROBLEMS OF CHEMICAL PHYSICS, RAS
Wavelength (nm)	Logarithm epsilon
190	4.282
191.5	4.29
193	4.299
194.5	4.306
196	4.309
197.5	4.309
199	4.306
200.5	4.302
202	4.297
203.5	4.295
205	4.296
206.5	4.302
208	4.313
209.5	4.33
211	4.351
212.5	4.377
214	4.405
215.41	4.432
216.91	4.464
218.41	4.486
219.91	4.508
221.41	4.532
222.91	4.549
224.41	4.536
225.905	4.445
227.405	4.306
228.905	4.182
230.405	4.044
231.905	3.884
233.405	3.711
234.275	3.618
235.111	3.538
236.611	3.429
238.111	3.336
239.611	3.279
241.111	3.261
242.611	3.274
244.317	3.304
245.817	3.327
247.317	3.349
248.817	3.371
250.317	3.392
251.817	3.414
253.317	3.435
254.817	3.456
256.317	3.477
257.817	3.499
257.826	3.499
259.326	3.524
260.826	3.546
262.326	3.57
263.826	3.598
265.326	3.627
266.826	3.656
268.326	3.682
269.826	3.703
271.326	3.715
272.597	3.72
274.097	3.722
275.597	3.722
277.097	3.72
278.597	3.718
280.097	3.716
281.597	3.715
283.097	3.713
284.597	3.71
286.097	3.704
287.587	3.695
289.087	3.678
290.587	3.655
292.087	3.63
293.587	3.603
295.087	3.573
296.587	3.538
298.087	3.494
299.587	3.436
301.087	3.361
302.587	3.266
304.087	3.149
305.587	3.009
