Uv/Vis Spectrum: 2,4-Diazido-6-methylpyrimidine
Formula: C5H4N8
CAS: 1680-11-1
Melting point: 126-126.5
Instrument: Beckman DU
Origin: INSTITUTE OF ENERGY PROBLEMS OF CHEMICAL PHYSICS, RAS
Wavelength (nm)	Logarithm epsilon
215.51	3.888
215.67	3.888
215.83	3.888
215.99	3.89
216.15	3.89
216.31	3.89
216.47	3.891
216.63	3.891
216.79	3.891
216.95	3.893
217.11	3.893
217.27	3.893
217.43	3.893
217.59	3.895
217.75	3.895
217.91	3.895
218.39	3.895
218.87	3.9
219.34	3.901
219.82	3.906
220.3	3.911
220.78	3.916
221.26	3.919
221.74	3.927
222.22	3.932
222.7	3.942
223.18	3.945
223.66	3.951
224.14	3.961
224.61	3.971
225.09	3.981
225.57	3.994
226.05	4
226.53	4.021
227.01	4.04
227.49	4.073
227.97	4.097
228.45	4.117
228.93	4.136
229.41	4.157
229.89	4.178
230.36	4.198
230.84	4.217
231.32	4.238
231.8	4.254
232.28	4.27
232.76	4.285
233.24	4.3
233.72	4.309
234.2	4.317
234.68	4.33
235.16	4.33
235.64	4.335
236.11	4.338
236.59	4.34
237.07	4.342
237.55	4.347
238.03	4.347
238.51	4.347
238.99	4.343
239.47	4.345
239.95	4.338
240.43	4.332
240.91	4.324
241.38	4.309
241.86	4.295
242.34	4.279
242.82	4.256
243.3	4.24
243.78	4.191
244.26	4.149
244.74	4.1
245.22	4.058
245.7	4.01
246.18	3.977
246.66	3.958
247.13	3.94
247.61	3.926
248.09	3.911
248.57	3.896
249.05	3.887
249.53	3.874
250.01	3.864
250.49	3.854
250.97	3.846
251.45	3.836
251.93	3.832
252.41	3.823
252.88	3.819
253.36	3.815
254.32	3.809
254.8	3.807
255.28	3.806
255.76	3.804
256.24	3.804
256.72	3.804
257.2	3.804
257.68	3.806
258.15	3.807
259.11	3.811
259.59	3.811
260.07	3.814
260.55	3.817
261.03	3.819
261.51	3.823
261.99	3.823
262.47	3.825
262.95	3.828
263.43	3.832
263.9	3.835
264.38	3.838
264.86	3.841
265.34	3.843
265.82	3.848
266.78	3.854
267.26	3.859
267.74	3.859
268.22	3.864
268.7	3.872
269.18	3.872
269.65	3.877
270.13	3.88
270.61	3.885
271.09	3.888
271.57	3.893
272.05	3.898
272.53	3.903
273.49	3.911
273.97	3.917
274.45	3.921
275.4	3.932
275.88	3.935
276.36	3.94
276.84	3.943
277.32	3.948
277.8	3.95
278.28	3.951
278.76	3.955
279.24	3.956
279.72	3.955
280.67	3.951
281.15	3.95
281.63	3.948
282.11	3.947
283.07	3.938
283.55	3.934
284.03	3.927
284.51	3.924
284.99	3.917
285.47	3.911
285.95	3.903
286.42	3.903
286.9	3.89
287.38	3.885
287.86	3.879
288.34	3.869
288.82	3.862
289.3	3.854
289.78	3.846
290.26	3.838
290.74	3.83
291.22	3.825
291.69	3.811
292.17	3.802
292.65	3.801
293.13	3.783
293.61	3.772
294.09	3.76
294.57	3.747
295.05	3.741
295.53	3.721
296.01	3.707
296.49	3.691
296.97	3.671
297.44	3.655
297.92	3.631
298.4	3.597
298.88	3.548
299.36	3.5
299.68	3.4
299.84	3.451
