Uv/Vis Spectrum: 6-Chloro-2-pyridinol
Formula: C5H4ClNO
CAS: 16879-02-0
Instrument: Perkin-Elmer spectrophotometer
Origin: INSTITUTE OF ENERGY PROBLEMS OF CHEMICAL PHYSICS, RAS
Wavelength (nm)	Logarithm epsilon
200.602	3.26865
200.812	3.26505
201.255	3.25388
201.469	3.25382
201.881	3.23912
202.538	3.22789
202.778	3.22782
205.203	3.21961
206.341	3.23386
206.803	3.24123
207.234	3.24464
207.914	3.25549
208.167	3.26646
208.602	3.27385
208.862	3.29232
209.305	3.30677
209.539	3.32526
210.001	3.33219
210.238	3.35421
210.701	3.36159
210.926	3.37257
211.392	3.38348
211.622	3.39843
212.088	3.40934
212.313	3.42032
212.78	3.43123
213.009	3.44574
213.689	3.45659
213.941	3.46756
214.38	3.47847
214.843	3.48585
215.068	3.49683
215.992	3.51114
216.218	3.52212
217.326	3.53284
218.002	3.54015
219.999	3.53207
220.239	3.532
221.762	3.50594
221.976	3.50587
222.617	3.47962
222.853	3.47602
223.254	3.45029
223.7	3.44265
223.911	3.43905
224.326	3.40182
224.536	3.39823
224.959	3.36851
225.169	3.36491
225.588	3.33166
225.798	3.32763
226.21	3.28731
226.423	3.28724
226.843	3.25399
227.057	3.25393
227.48	3.22421
227.69	3.22062
228.117	3.19443
228.327	3.19083
228.746	3.15758
228.956	3.15354
229.375	3.12029
229.585	3.1167
229.985	3.0649
230.195	3.0613
230.602	3.01701
230.812	3.01297
231.208	2.95764
231.422	2.95758
231.795	2.90623
232.031	2.90218
232.409	2.85436
232.645	2.85032
233.03	2.81001
233.266	2.80597
233.636	2.75064
233.872	2.74704
234.253	2.70275
234.49	2.69871
234.859	2.64338
235.099	2.64331
235.484	2.603
235.721	2.59896
236.11	2.56218
236.346	2.55813
236.739	2.52489
236.975	2.52129
237.368	2.48804
237.605	2.48444
237.986	2.44015
238.405	2.40646
238.615	2.40286
239.026	2.3621
239.236	2.35851
239.659	2.32879
239.869	2.32519
240.292	2.29548
240.502	2.29188
240.914	2.25112
241.128	2.25106
241.531	2.20323
241.745	2.20317
242.149	2.1549
242.359	2.15131
242.778	2.11806
242.988	2.11446
243.392	2.06619
243.602	2.0626
244.238	2.03282
244.685	2.02518
245.101	2.01401
245.976	2.00669
248.438	2.00951
248.908	2.02396
249.347	2.03487
249.666	2.10855
250.233	2.01253
250.654	2.20766
251.159	2.25567
251.622	2.28866
251.897	2.32172
252.639	2.3913
253.083	2.40619
253.355	2.46133
253.841	2.49079
254.109	2.54195
254.591	2.56788
254.852	2.61198
255.33	2.63393
255.823	2.67045
256.095	2.72559
256.585	2.75902
256.818	2.77707
257.06	2.80306
257.347	2.84715
257.798	2.86911
258.082	2.90967
258.521	2.92059
258.796	2.95364
259.243	2.97162
259.515	3.00114
259.955	3.01206
260.226	3.04157
260.674	3.06
260.93	3.0745
261.369	3.08542
261.61	3.11097
262.08	3.12586
262.788	3.16232
263.013	3.17329
263.483	3.18774
263.716	3.20622
264.19	3.22464
264.424	3.24313
264.894	3.25757
265.123	3.27208
265.589	3.28299
265.819	3.29794
266.285	3.30885
266.514	3.32336
266.98	3.33427
267.209	3.34878
267.676	3.36013
267.905	3.37465
268.368	3.38202
268.601	3.40007
269.063	3.40744
269.292	3.42195
269.758	3.43286
269.988	3.44781
270.454	3.45872
270.683	3.47324
271.15	3.48414
271.379	3.49866
271.841	3.50603
272.071	3.52099
272.758	3.5389
272.988	3.55385
273.454	3.56476
273.68	3.57574
274.15	3.59018
274.375	3.60116
274.841	3.61207
275.067	3.62305
275.533	3.63396
275.758	3.64493
276.224	3.65584
276.45	3.66682
277.134	3.68165
277.36	3.69262
277.822	3.69956
278.292	3.71444
278.727	3.72138
279.197	3.73627
279.659	3.7432
279.881	3.75065
280.343	3.75802
281.027	3.7724
281.703	3.77972
282.379	3.78659
283.277	3.80135
284.171	3.81214
284.629	3.81554
285.305	3.82285
285.977	3.82619
286.871	3.83698
287.757	3.8407
289.105	3.85135
290.445	3.8545
291.113	3.8543
292.014	3.84653
292.656	3.84635
293.317	3.83909
294.209	3.82381
294.423	3.82375
294.866	3.81258
295.076	3.80898
295.522	3.80134
296.377	3.77548
296.591	3.77541
297.469	3.74556
297.683	3.7455
298.774	3.71559
299.194	3.7084
299.435	3.70833
299.846	3.69319
300.289	3.68202
300.709	3.67483
301.148	3.65968
301.594	3.65204
302.239	3.62977
302.896	3.61854
303.3	3.59633
303.54	3.59626
303.956	3.5851
304.589	3.55178
304.826	3.54818
305.211	3.50743
305.448	3.50382
305.848	3.47764
306.085	3.47404
306.485	3.4483
306.721	3.44426
307.114	3.41102
307.324	3.40742
307.743	3.37417
307.954	3.37057
308.365	3.32981
308.575	3.32578
308.986	3.28546
309.196	3.28142
309.604	3.23713
309.814	3.23353
310.225	3.19277
310.435	3.18918
310.843	3.14489
311.052	3.14085
311.472	3.1076
311.682	3.104
312.097	3.06722
312.307	3.06318
312.715	3.01889
312.925	3.01529
313.34	2.97806
313.55	2.97447
313.969	2.94122
314.179	2.93762
314.583	2.88936
314.793	2.88576
315.2	2.84147
315.41	2.83743
315.818	2.79314
316.028	2.78954
316.424	2.73421
316.634	2.73061
317.014	2.66027
317.224	2.65667
317.604	2.58632
317.814	2.58273
318.182	2.50134
318.392	2.49774
318.706	2.36513
318.916	2.36109
319.273	2.2691
319.487	2.26904
319.867	2.19869
320.077	2.1951
