Uv/Vis Spectrum: 3,4-diphenylthiophene
Formula: C16H12S
CAS: 16939-13-2
Melting point: 114
Instrument: Beckman DK
Origin: INSTITUTE OF ENERGY PROBLEMS OF CHEMICAL PHYSICS, RAS
Wavelength (nm)	Logarithm epsilon
209.86	4.181
210.86	4.129
211.86	4.09
212.86	4.062
213.86	4.04
214.86	4.025
215.86	4.013
216.86	4.004
217.86	3.997
218.86	3.992
219.86	3.988
220.86	3.985
221.86	3.983
222.86	3.982
223.86	3.981
224.86	3.981
225.86	3.981
226.86	3.981
227.86	3.981
228.86	3.98
229.86	3.979
230.86	3.976
231.86	3.971
232.86	3.965
233.86	3.957
234.86	3.948
235.86	3.938
236.835	3.931
237.835	3.919
238.835	3.905
239.835	3.89
240.835	3.875
241.835	3.86
242.835	3.846
243.835	3.834
244.835	3.822
245.835	3.812
246.835	3.803
247.835	3.795
248.835	3.788
249.835	3.781
250.835	3.775
251.835	3.77
252.835	3.764
253.835	3.758
254.835	3.752
255.835	3.744
256.835	3.737
257.835	3.728
258.835	3.718
259.835	3.707
260.835	3.695
261.835	3.682
262.835	3.668
263.835	3.653
264.835	3.636
265.835	3.618
266.835	3.599
267.835	3.578
268.835	3.556
269.034	3.552
270.034	3.521
271.034	3.497
272.034	3.476
273.034	3.455
274.034	3.433
275.034	3.409
276.034	3.383
277.034	3.355
278.034	3.325
279.034	3.294
280.034	3.263
281.034	3.233
282.034	3.204
283.034	3.175
284.034	3.149
285.034	3.124
286.034	3.101
287.034	3.078
288.034	3.056
289.034	3.033
290.034	3.008
291.034	2.982
292.034	2.952
293.034	2.918
294.034	2.881
295.034	2.841
296.034	2.8
297.034	2.76
