Uv/Vis Spectrum: 2-Chloro-3-methylnaphthoquinone
Formula: C11H7ClO2
CAS: 17015-99-5
Melting point: 153-154
Instrument: SF-16
Origin: INSTITUTE OF ENERGY PROBLEMS OF CHEMICAL PHYSICS, RAS
Wavelength (nm)	Logarithm epsilon
209.6	4.096
211.21	4.064
212.81	4.043
214.41	4.022
216.01	4.001
217.61	3.986
219.21	3.965
220.81	3.933
222.41	3.891
224.01	3.86
225.61	3.838
227.21	3.823
230.42	3.817
232.02	3.833
233.62	3.886
235.22	3.901
236.82	3.922
238.42	3.959
240.02	3.996
241.62	4.075
243.22	4.122
244.82	4.133
246.42	4.112
248.02	4.101
249.62	4.127
251.23	4.117
252.83	3.975
254.43	3.943
256.03	3.938
257.63	3.949
259.23	3.97
260.83	4.022
262.43	4.054
264.03	4.122
265.63	4.148
267.23	4.19
268.83	4.201
270.43	4.211
275.24	4.206
276.84	4.127
278.44	4.048
280.04	3.933
281.64	3.807
283.24	3.76
284.84	3.587
286.44	3.508
288.04	3.334
289.64	3.229
291.25	3.119
292.85	3.046
294.45	3.025
296.05	3.025
297.65	3.046
299.25	3.072
300.85	3.093
302.45	3.114
304.05	3.14
305.65	3.167
307.25	3.193
308.85	3.219
310.45	3.245
312.06	3.266
313.66	3.277
316.86	3.303
318.46	3.324
320.06	3.35
323.26	3.387
324.86	3.403
326.46	3.413
328.06	3.434
329.66	3.445
331.26	3.45
336.07	3.455
337.67	3.434
339.27	3.429
340.87	3.408
342.47	3.397
344.07	3.382
345.67	3.361
347.27	3.334
348.87	3.324
350.47	3.292
352.08	3.261
353.68	3.219
355.28	3.193
356.88	3.14
358.48	3.098
360.08	3.088
361.68	3.072
363.28	3.035
364.88	2.988
366.48	2.936
368.08	2.893
369.68	2.841
371.28	2.799
372.89	2.752
374.49	2.704
376.09	2.652
377.69	2.584
379.29	2.542
380.89	2.515
382.49	2.468
384.09	2.426
385.69	2.379
387.29	2.342
388.89	2.311
390.49	2.284
392.09	2.264
393.7	2.237
395.3	2.211
396.9	2.19
398.5	2.174
400.1	2.159
401.7	2.138
403.3	2.138
404.9	2.122
406.5	2.116
408.1	2.101
