Uv/Vis Spectrum: 1,4,9,10-Anthracenetetrone
Formula: C14H6O4
CAS: 1709-63-3
Melting point: 211-213 dec
Instrument: Beckman spectrophotometer
Origin: INSTITUTE OF ENERGY PROBLEMS OF CHEMICAL PHYSICS, RAS
Wavelength (nm)	Logarithm epsilon
246.99	4.127
247.4	4.127
247.81	4.127
248.22	4.123
248.63	4.123
249.05	4.123
249.46	4.119
249.87	4.119
250.28	4.119
250.69	4.115
251.1	4.115
253.16	4.066
255.21	4.041
257.27	4.009
259.32	3.984
261.38	3.951
263.44	3.906
265.49	3.861
267.55	3.824
269.6	3.783
271.66	3.738
273.71	3.697
275.77	3.656
277.82	3.595
279.88	3.546
281.94	3.489
283.99	3.443
286.05	3.39
288.1	3.349
290.16	3.325
292.21	3.3
294.27	3.28
296.33	3.259
298.38	3.251
300.44	3.243
302.49	3.239
304.55	3.239
306.6	3.239
308.66	3.243
310.72	3.243
312.77	3.251
314.83	3.259
316.88	3.271
318.94	3.276
320.99	3.296
323.05	3.308
325.11	3.321
327.16	3.337
329.22	3.349
331.27	3.357
333.33	3.374
335.38	3.374
337.44	3.378
339.5	3.382
341.55	3.382
343.61	3.378
345.66	3.37
347.72	3.362
349.77	3.333
351.83	3.321
353.89	3.308
355.94	3.288
358	3.267
360.05	3.243
362.11	3.218
364.16	3.194
366.22	3.173
368.28	3.14
370.33	3.12
372.39	3.087
374.44	3.059
376.5	3.034
378.55	2.997
380.61	2.973
382.67	2.948
384.72	2.911
386.78	2.882
388.83	2.854
390.89	2.821
392.94	2.792
395	2.747
397.06	2.715
399.11	2.69
401.17	2.661
403.22	2.624
405.28	2.588
407.33	2.563
409.39	2.534
411.45	2.506
413.5	2.481
415.56	2.452
417.61	2.424
419.67	2.407
421.72	2.387
423.78	2.366
425.84	2.35
427.89	2.325
429.95	2.313
432	2.301
434.06	2.285
436.11	2.276
438.17	2.264
440.23	2.256
442.28	2.244
444.34	2.235
446.39	2.235
448.45	2.231
450.5	2.231
452.56	2.231
454.62	2.231
456.67	2.231
458.73	2.235
460.78	2.231
462.84	2.227
464.89	2.227
466.95	2.223
469.01	2.215
471.06	2.207
473.12	2.194
475.17	2.182
477.23	2.162
479.28	2.145
481.34	2.125
483.4	2.104
485.45	2.084
487.51	2.059
489.56	2.043
491.62	2.022
493.67	1.994
495.73	1.973
497.79	1.949
499.84	1.916
501.9	1.891
503.95	1.859
506.01	1.838
508.06	1.81
510.12	1.781
512.18	1.748
514.23	1.715
516.29	1.691
518.34	1.662
520.4	1.629
522.45	1.605
524.51	1.564
