Uv/Vis Spectrum: 4-Methyl-3-hexanone
Formula: C7H14O
CAS: 17042-16-9
Boiling point: 134.5
Instrument: n.i.g.
Origin: INSTITUTE OF ENERGY PROBLEMS OF CHEMICAL PHYSICS, RAS
Wavelength (nm)	Logarithm epsilon
246.13	3.59889
246.611	3.61965
247.092	3.63946
247.573	3.65841
248.746	3.7087
249.141	3.72534
249.537	3.74136
249.932	3.75682
251.008	3.80051
251.331	3.81404
251.656	3.82716
251.987	3.8399
253.013	3.87368
253.323	3.88535
253.632	3.89658
253.942	3.90747
254.711	3.93456
255.033	3.94528
255.359	3.95568
255.689	3.96573
256.557	3.99328
256.761	4.00289
256.989	4.01131
257.34	4.01898
258.159	4.04345
258.469	4.05181
258.779	4.05997
259.089	4.0679
259.907	4.0884
260.217	4.09595
260.527	4.10333
260.837	4.11051
261.457	4.12574
261.767	4.13283
262.077	4.13982
262.387	4.14669
263.255	4.16385
263.515	4.16977
263.776	4.17561
264.037	4.18137
265.004	4.19944
265.326	4.20529
265.652	4.21104
265.983	4.21665
266.962	4.23449
267.251	4.23952
267.546	4.24449
267.842	4.24941
268.66	4.26242
269.036	4.26831
269.417	4.2741
269.8	4.27975
270.718	4.29422
271.056	4.29894
271.4	4.30361
271.746	4.30822
272.625	4.32002
272.948	4.32415
273.273	4.32825
273.603	4.33231
274.728	4.34396
274.745	4.34522
274.854	4.34669
275.15	4.34963
275.348	4.35205
275.755	4.35572
275.953	4.35725
276.113	4.35797
276.113	4.35797
276.79	4.36615
277.592	4.37334
278.424	4.38068
279.56	4.3896
280.102	4.39276
280.647	4.3959
281.198	4.39902
282.673	4.40465
283.363	4.40606
284.06	4.40746
284.758	4.40881
286.192	4.41018
286.758	4.40986
287.176	4.40938
287.806	4.40831
287.916	4.40797
287.978	4.40796
288.042	4.40796
288.112	4.40796
289.429	4.4036
289.904	4.40072
290.378	4.3978
290.852	4.39482
292.262	4.38443
292.677	4.38031
293.099	4.37611
293.522	4.37185
294.37	4.36281
294.77	4.35793
295.173	4.353
295.58	4.34801
296.488	4.33685
296.851	4.33167
297.217	4.32641
297.588	4.32103
298.494	4.30646
298.844	4.3009
299.194	4.29525
299.545	4.28947
300.401	4.27379
300.813	4.26499
301.182	4.25804
301.401	4.25302
302.1	4.23847
302.33	4.23309
302.561	4.22758
302.799	4.22198
303.497	4.2047
303.763	4.19878
304.031	4.19279
304.305	4.1867
305.101	4.16674
305.296	4.16057
305.497	4.15429
305.701	4.14785
306.703	4.1225
306.947	4.11496
307.197	4.10721
307.449	4.09927
308.403	4.07305
308.974	4.05644
309.196	4.04915
309.259	4.04536
310.104	4.01913
310.433	4.00894
310.769	3.99845
311.106	3.98761
312.013	3.95751
312.327	3.94575
312.644	3.9336
312.967	3.92099
313.922	3.88568
314.285	3.87089
314.651	3.85558
315.022	3.83971
315.928	3.79677
316.328	3.7789
316.73	3.76027
317.138	3.7408
317.937	3.69947
318.267	3.68022
318.603	3.66008
318.942	3.63896
320.056	3.56858
320.455	3.53916
320.855	3.50745
321.254	3.47292
