Uv/Vis Spectrum: 4(1H)-Pyridinone,1-methoxy-
Formula: C6H7NO2
CAS: 1703-18-0
Instrument: Varian 2000
Origin: INSTITUTE OF ENERGY PROBLEMS OF CHEMICAL PHYSICS, RAS
Wavelength (nm)	Logarithm epsilon
218.827	2.629
219.327	2.598
219.827	2.579
220.327	2.571
220.827	2.57
221.327	2.574
221.827	2.582
222.327	2.591
222.827	2.602
223.327	2.613
223.827	2.624
224.327	2.636
224.827	2.646
225.327	2.657
225.827	2.669
226.327	2.68
226.827	2.693
227.327	2.708
227.827	2.724
228.327	2.742
228.827	2.763
229.327	2.786
229.827	2.81
230.327	2.836
230.827	2.862
231.45	2.895
231.95	2.922
232.45	2.949
232.95	2.975
233.45	3.002
233.95	3.028
234.45	3.054
234.95	3.08
235.45	3.105
235.95	3.129
236.45	3.153
236.95	3.177
237.45	3.201
237.95	3.224
238.45	3.247
238.95	3.27
239.45	3.292
239.95	3.314
240.45	3.337
240.95	3.359
241.45	3.381
241.95	3.404
242.45	3.426
242.95	3.448
243.45	3.471
243.95	3.494
244.031	3.499
244.531	3.521
245.031	3.543
245.531	3.566
246.031	3.588
246.531	3.611
247.031	3.633
247.531	3.656
247.537	3.653
248.037	3.679
248.537	3.703
249.037	3.725
249.537	3.747
250.037	3.767
250.537	3.786
251.037	3.804
251.537	3.821
252.037	3.838
252.537	3.855
253.037	3.872
253.537	3.888
254.037	3.904
254.537	3.919
255.037	3.935
255.537	3.951
256.037	3.966
256.537	3.981
257.037	3.996
257.537	4.01
258.037	4.024
258.537	4.038
259.037	4.051
259.537	4.064
260.037	4.076
260.537	4.088
261.037	4.099
261.537	4.109
262.037	4.118
262.537	4.127
263.037	4.134
263.537	4.141
264.037	4.147
264.537	4.151
265.037	4.155
265.537	4.157
266.037	4.158
266.537	4.159
267.037	4.158
267.537	4.156
268.037	4.153
268.537	4.149
269.037	4.144
269.537	4.138
270.037	4.132
270.537	4.124
271.037	4.115
271.537	4.106
272.037	4.097
272.537	4.086
273.037	4.075
273.537	4.064
274.037	4.052
274.537	4.04
275.037	4.028
275.537	4.016
276.037	4.003
276.537	3.991
277.037	3.978
277.537	3.965
278.037	3.952
278.537	3.939
279.037	3.926
279.537	3.913
280.037	3.9
280.537	3.886
281.037	3.872
281.537	3.856
282.037	3.84
282.537	3.823
283.037	3.804
283.537	3.782
284.031	3.761
284.531	3.739
285.031	3.716
285.531	3.692
286.031	3.667
286.531	3.64
287.031	3.612
287.531	3.583
288.031	3.552
288.531	3.52
288.697	3.513
289.197	3.481
289.697	3.444
290.197	3.404
290.697	3.362
291.197	3.317
291.697	3.271
292.197	3.224
292.697	3.176
293.197	3.128
293.697	3.08
294.197	3.033
294.697	2.986
295.197	2.941
295.697	2.897
296.197	2.854
296.697	2.813
297.197	2.773
297.697	2.736
298.197	2.7
298.697	2.666
299.197	2.634
299.697	2.604
300.197	2.575
300.697	2.549
301.197	2.524
301.697	2.502
302.197	2.48
302.697	2.461
303.197	2.442
303.697	2.426
304.197	2.41
304.697	2.396
305.197	2.382
305.697	2.37
306.197	2.358
306.697	2.348
307.197	2.338
307.697	2.328
308.197	2.319
308.697	2.31
309.197	2.302
309.697	2.293
310.197	2.285
310.697	2.277
311.197	2.269
311.697	2.261
312.197	2.253
312.697	2.245
313.197	2.237
313.697	2.23
314.197	2.222
314.697	2.214
315.197	2.206
315.697	2.199
316.197	2.191
316.697	2.184
317.197	2.178
317.697	2.172
318.197	2.167
318.697	2.162
319.197	2.159
319.697	2.156
320.197	2.155
320.442	2.144
