Uv/Vis Spectrum: 1,5-Diphenylpentane
Formula: C17H20
CAS: 1718-50-9
Boiling point: 140-143/ 0.2 mm
Instrument: Beckman DU
Origin: INSTITUTE OF ENERGY PROBLEMS OF CHEMICAL PHYSICS, RAS
Wavelength (nm)	Logarithm epsilon
205.11	3.636
205.2	3.644
205.87	3.709
207.05	3.781
208.22	3.818
209.4	3.846
210.57	3.852
211.74	3.846
212.92	3.815
214.09	3.781
215.27	3.733
216.44	3.671
217.62	3.607
218.79	3.525
219.97	3.426
221.14	3.286
222.32	3.132
223.49	2.961
224.66	2.79
225.84	2.62
227.01	2.449
228.19	2.278
229.36	2.107
230.54	2.018
231.71	1.991
232.89	1.988
234.06	1.991
235.23	2.001
236.41	2.015
237.58	2.042
238.76	2.073
239.93	2.111
241.11	2.158
242.28	2.193
243.46	2.237
244.63	2.275
245.81	2.309
246.98	2.343
248.15	2.38
249.33	2.418
250.5	2.445
251.68	2.493
252.85	2.541
254.03	2.575
255.2	2.572
256.38	2.558
257.55	2.572
258.72	2.602
259.9	2.623
261.07	2.637
262.25	2.63
263.42	2.572
264.6	2.507
265.77	2.442
266.31	2.431
266.96	2.426
267.29	2.433
267.56	2.443
267.8	2.46
267.96	2.474
268.18	2.495
268.31	2.506
268.39	2.516
268.54	2.534
268.63	2.544
268.72	2.554
268.76	2.559
268.83	2.561
268.89	2.559
268.94	2.553
269.06	2.532
269.16	2.514
269.33	2.481
269.49	2.446
269.72	2.396
269.94	2.348
270.47	2.251
271.64	2.08
272.82	1.909
273.99	1.769
275.17	1.697
276.34	1.653
277.52	1.629
278.69	1.612
279.87	1.602
281.04	1.598
282.21	1.595
283.39	1.585
284.56	1.581
285.74	1.574
286.91	1.568
288.09	1.561
289.26	1.551
290.44	1.533
291.61	1.516
292.79	1.499
293.96	1.482
295.13	1.462
296.31	1.445
297.48	1.421
298.66	1.397
299.83	1.373
301.01	1.342
302.18	1.308
303.36	1.277
304.53	1.243
305.7	1.209
306.88	1.171
308.05	1.13
