Uv/Vis Spectrum: 4-chloro-N-(diphenylmethylene)benzenamine
Formula: C19H14ClN
CAS: 17273-16-4
Melting point: 92-93
Instrument: Beckman DK-1
Origin: INSTITUTE OF ENERGY PROBLEMS OF CHEMICAL PHYSICS, RAS
Wavelength (nm)	Logarithm epsilon
221.134	4.339
221.416	4.338
221.916	4.333
222.416	4.328
222.916	4.323
223.416	4.319
223.916	4.315
224.416	4.311
224.916	4.308
225.416	4.306
225.916	4.303
226.416	4.301
226.916	4.3
227.416	4.298
227.916	4.297
228.416	4.296
228.916	4.296
229.416	4.295
229.916	4.295
230.416	4.295
230.916	4.295
231.416	4.295
231.916	4.296
232.416	4.297
232.916	4.297
233.416	4.298
233.916	4.299
234.416	4.3
234.916	4.302
235.416	4.303
235.916	4.304
236.416	4.306
236.916	4.307
237.416	4.309
237.916	4.31
238.416	4.312
238.916	4.313
239.416	4.315
239.916	4.316
240.416	4.318
240.916	4.319
241.416	4.32
241.916	4.322
242.416	4.323
242.916	4.324
243.416	4.325
243.916	4.326
244.416	4.327
244.916	4.328
245.416	4.328
245.916	4.329
246.416	4.329
246.916	4.33
247.416	4.33
247.916	4.329
248.416	4.329
248.916	4.329
249.416	4.328
249.916	4.327
250.416	4.326
250.916	4.325
251.416	4.324
251.916	4.322
252.416	4.32
252.916	4.318
253.416	4.316
253.916	4.314
254.416	4.311
254.916	4.308
255.416	4.305
255.916	4.302
256.416	4.298
256.916	4.294
257.416	4.291
257.916	4.286
258.416	4.282
258.916	4.278
259.416	4.273
259.916	4.268
260.416	4.263
260.916	4.258
261.416	4.253
261.916	4.248
262.416	4.242
262.916	4.236
263.416	4.231
263.916	4.225
264.416	4.219
264.916	4.213
265.416	4.207
265.916	4.2
266.501	4.192
266.538	4.196
267.038	4.19
267.538	4.185
268.038	4.18
268.538	4.174
269.038	4.168
269.538	4.162
270.038	4.156
270.538	4.15
271.038	4.144
271.538	4.137
272.038	4.131
272.538	4.124
273.038	4.117
273.538	4.11
274.038	4.103
274.538	4.095
275.038	4.088
275.538	4.08
276.038	4.071
276.538	4.063
277.038	4.054
277.538	4.045
278.038	4.035
278.538	4.026
279.038	4.016
279.538	4.005
280.038	3.994
280.538	3.983
281.038	3.972
281.538	3.96
282.038	3.948
282.538	3.936
283.038	3.924
283.538	3.911
284.038	3.898
284.538	3.885
285.038	3.872
285.538	3.859
286.038	3.846
286.538	3.833
287.038	3.821
287.538	3.808
288.038	3.797
288.535	3.786
289.035	3.776
289.535	3.766
290.035	3.757
290.535	3.747
291.035	3.738
291.535	3.728
292.035	3.718
292.535	3.709
293.035	3.699
293.535	3.689
294.035	3.68
294.535	3.67
295.035	3.66
295.535	3.65
296.035	3.64
296.535	3.63
297.035	3.62
297.535	3.61
298.035	3.6
298.535	3.589
299.035	3.579
299.535	3.569
300.035	3.56
300.535	3.55
301.035	3.54
301.535	3.531
302.035	3.521
302.535	3.512
303.035	3.503
303.535	3.495
304.035	3.487
304.535	3.479
305.035	3.471
305.535	3.464
306.035	3.457
306.535	3.45
307.035	3.444
307.535	3.439
308.035	3.434
308.535	3.429
309.035	3.426
309.535	3.422
310.035	3.419
310.535	3.417
311.035	3.415
311.535	3.414
312.035	3.413
312.535	3.413
313.035	3.413
313.535	3.414
314.035	3.415
314.535	3.416
315.035	3.418
315.535	3.42
316.035	3.422
316.172	3.423
316.672	3.427
317.172	3.432
317.672	3.436
318.172	3.44
318.672	3.444
319.172	3.448
319.672	3.452
320.172	3.456
320.672	3.461
321.172	3.465
321.672	3.469
322.172	3.473
322.672	3.476
323.172	3.48
323.672	3.484
324.172	3.488
324.672	3.492
325.172	3.495
325.672	3.499
326.172	3.502
326.672	3.505
327.172	3.509
327.672	3.512
328.172	3.515
328.672	3.518
329.172	3.521
329.672	3.524
330.172	3.526
330.672	3.529
331.172	3.532
331.672	3.534
332.172	3.536
332.672	3.539
333.172	3.541
333.672	3.543
334.172	3.545
334.672	3.546
335.172	3.548
335.672	3.549
336.172	3.551
336.672	3.552
337.172	3.553
337.672	3.554
338.172	3.555
338.672	3.556
339.172	3.556
339.672	3.557
340.172	3.557
340.672	3.557
341.172	3.557
341.672	3.557
342.172	3.557
342.672	3.556
343.172	3.556
343.672	3.555
344.172	3.554
344.672	3.553
345.172	3.552
345.672	3.551
346.172	3.549
346.672	3.547
347.172	3.546
347.672	3.544
348.172	3.542
348.672	3.54
349.172	3.537
349.672	3.535
350.172	3.532
350.672	3.53
351.172	3.527
351.672	3.524
352.172	3.521
352.672	3.518
353.172	3.515
353.672	3.512
354.172	3.509
354.672	3.506
355.172	3.503
355.672	3.5
356.172	3.497
356.672	3.494
357.172	3.491
357.672	3.488
358.172	3.486
358.192	3.484
359.192	3.481
360.192	3.477
361.192	3.473
362.192	3.467
363.192	3.461
364.192	3.454
365.192	3.447
366.192	3.44
367.192	3.433
368.192	3.425
369.192	3.418
370.192	3.41
371.192	3.402
372.192	3.395
373.192	3.387
374.192	3.379
375.192	3.371
376.192	3.362
377.192	3.354
378.192	3.345
379.192	3.336
380.192	3.326
381.192	3.317
382.192	3.306
383.192	3.295
384.192	3.284
385.192	3.271
386.192	3.259
387.192	3.245
388.192	3.23
389.192	3.215
390.192	3.199
391.192	3.183
392.192	3.165
393.192	3.147
394.192	3.129
395.192	3.11
396.192	3.09
397.192	3.071
398.192	3.052
399.192	3.033
400.192	3.014
