Uv/Vis Spectrum: Benzene, 1,1'-(1,3,5-hexatriene-1,6-diyl)bis-
Formula: C18H16
CAS: 1720-32-7
Instrument: Beckman DK-2a
Origin: INSTITUTE OF ENERGY PROBLEMS OF CHEMICAL PHYSICS, RAS
Wavelength (nm)	Logarithm epsilon
362.56	3.628
363.46	3.658
364.36	3.689
365.27	3.72
366.18	3.75
367.1	3.781
368.02	3.812
368.94	3.843
369.87	3.873
371.27	3.904
372.22	3.935
373.64	3.965
375.07	3.996
376.51	4.027
377.97	4.054
379.43	4.081
381.41	4.109
383.4	4.136
385.92	4.163
389.51	4.184
394.21	4.187
397.96	4.17
400.13	4.143
402.32	4.116
405.1	4.092
407.91	4.068
411.92	4.047
416.6	4.03
421.99	4.034
425.66	4.054
428.77	4.078
431.93	4.105
434.48	4.133
437.07	4.16
440.35	4.187
443.01	4.214
445.02	4.242
447.74	4.269
449.8	4.296
451.88	4.324
453.97	4.354
456.09	4.382
457.51	4.412
459.66	4.44
461.11	4.47
462.56	4.501
466.23	4.525
472.23	4.535
475.29	4.508
477.61	4.477
479.17	4.446
480.74	4.416
481.53	4.385
483.12	4.354
483.91	4.324
484.71	4.293
486.32	4.262
487.94	4.232
488.75	4.201
490.38	4.109
491.2	4.078
492.85	4.017
493.68	3.986
494.51	3.955
495.35	3.924
496.19	3.894
497.87	3.832
498.72	3.802
499.56	3.771
500.42	3.71
502.13	3.648
503.85	3.587
505.59	3.556
506.46	3.525
507.34	3.495
508.22	3.464
509.1	3.433
509.98	3.402
510.87	3.372
511.76	3.341
512.65	3.31
513.55	3.28
514.45	3.249
515.35	3.218
516.26	3.188
517.17	3.157
518.08	3.126
519	3.095
519.92	3.065
520.84	3.034
522.7	3.003
523.63	2.973
524.57	2.942
