Uv/Vis Spectrum: diphenylmethanone,(2,4-dinitrophenyl)hydrazone
Formula: C18H14N4O4
CAS: 1733-62-6
Melting point: 238
Instrument: SF-4A
Origin: INSTITUTE OF ENERGY PROBLEMS OF CHEMICAL PHYSICS, RAS
Wavelength (nm)	Logarithm epsilon
233.601	4.216
234.601	4.204
235.601	4.195
236.601	4.187
237.601	4.181
238.601	4.177
239.601	4.173
240.601	4.17
241.601	4.167
242.601	4.164
243.601	4.161
244.601	4.158
245.601	4.154
246.601	4.15
247.601	4.146
248.601	4.141
249.601	4.135
250.601	4.129
251.601	4.122
252.601	4.115
253.601	4.107
254.601	4.098
255.601	4.089
256.601	4.079
257.601	4.069
258.601	4.059
259.601	4.048
260.601	4.038
261.601	4.027
262.601	4.016
263.601	4.004
264.601	3.993
265.601	3.982
266.601	3.971
267.601	3.96
268.601	3.95
269.601	3.939
270.601	3.929
271.601	3.919
272.601	3.909
273.601	3.9
274.601	3.891
275.601	3.882
276.601	3.873
277.601	3.865
278.601	3.856
279.601	3.849
280.601	3.841
281.601	3.833
282.601	3.826
283.601	3.818
284.601	3.811
285.601	3.804
286.601	3.796
287.601	3.789
288.601	3.782
289.601	3.774
290.601	3.767
291.601	3.759
292.601	3.752
293.601	3.745
294.601	3.737
295.601	3.73
296.601	3.723
297.601	3.717
299.158	3.707
300.158	3.695
301.158	3.684
302.158	3.674
303.158	3.664
304.158	3.653
305.158	3.642
306.158	3.631
307.158	3.619
308.158	3.607
309.158	3.595
310.158	3.583
311.158	3.572
312.158	3.562
313.158	3.552
314.158	3.545
315.158	3.539
316.158	3.536
317.158	3.536
318.158	3.539
319.158	3.545
320.158	3.554
321.158	3.567
322.158	3.583
323.158	3.603
324.158	3.625
325.158	3.649
326.158	3.674
327.158	3.7
327.192	3.702
328.192	3.723
329.192	3.744
330.192	3.767
331.192	3.789
332.192	3.812
333.192	3.835
334.192	3.859
335.192	3.882
336.192	3.905
337.192	3.928
338.192	3.95
339.192	3.973
340.192	3.994
341.192	4.016
342.192	4.037
343.192	4.057
344.192	4.076
345.192	4.096
346.192	4.114
347.192	4.132
348.192	4.149
349.192	4.166
350.192	4.182
351.192	4.197
352.192	4.211
353.192	4.225
354.192	4.239
355.192	4.252
356.192	4.264
357.192	4.275
358.192	4.286
359.192	4.297
360.192	4.307
361.192	4.316
362.192	4.325
363.192	4.333
364.192	4.341
365.192	4.348
366.192	4.354
367.192	4.361
368.192	4.366
369.192	4.372
370.192	4.376
371.192	4.381
372.192	4.384
373.192	4.388
374.192	4.391
375.192	4.393
376.192	4.395
377.192	4.396
378.192	4.397
379.192	4.397
380.192	4.397
381.192	4.396
382.192	4.395
383.192	4.393
384.192	4.39
385.192	4.388
386.192	4.384
387.192	4.38
388.192	4.376
389.192	4.371
390.192	4.366
391.192	4.36
392.192	4.354
393.192	4.348
394.192	4.341
395.192	4.334
396.192	4.327
397.192	4.32
397.215	4.321
398.215	4.312
399.215	4.303
400.215	4.295
401.215	4.287
402.215	4.278
403.215	4.27
404.215	4.262
405.215	4.253
406.215	4.245
407.215	4.236
408.215	4.226
409.215	4.217
410.215	4.207
411.215	4.196
412.215	4.186
413.215	4.175
414.215	4.164
415.215	4.152
416.215	4.141
417.215	4.129
418.215	4.117
419.215	4.104
420.215	4.092
421.215	4.079
422.215	4.067
423.215	4.054
424.215	4.042
425.215	4.029
426.215	4.017
427.215	4.004
428.215	3.992
429.215	3.98
430.215	3.969
431.215	3.957
432.215	3.946
433.215	3.935
434.215	3.924
435.215	3.914
436.215	3.904
437.215	3.894
438.215	3.884
439.215	3.874
440.215	3.865
441.215	3.855
442.215	3.846
443.215	3.836
444.215	3.826
445.215	3.816
446.06	3.807
