Uv/Vis Spectrum: 2-Aminopyrene
Formula: C16H11N
CAS: 1732-23-6
Melting point: 207
Instrument: unknown
Origin: INSTITUTE OF ENERGY PROBLEMS OF CHEMICAL PHYSICS, RAS
Wavelength (nm)	Logarithm epsilon
234.48	3.92
235.31	3.953
236.14	3.987
236.97	4.016
237.81	4.045
238.61	4.074
239.47	4.108
240.43	4.141
241.3	4.17
242.13	4.199
243.13	4.229
244.12	4.263
244.96	4.287
245.96	4.316
246.9	4.347
247.79	4.379
248.79	4.408
249.79	4.437
250.79	4.462
251.71	4.492
252.62	4.521
253.62	4.546
254.61	4.575
255.45	4.604
256.45	4.629
257.44	4.654
258.44	4.683
259.44	4.712
260.44	4.737
261.6	4.758
262.77	4.779
264.1	4.796
265.6	4.804
267.1	4.8
268.43	4.783
269.76	4.767
270.92	4.741
272.09	4.716
273.25	4.691
274.42	4.666
275.42	4.641
276.42	4.616
277.25	4.587
278.15	4.556
278.99	4.527
279.91	4.495
280.08	4.491
280.24	4.487
280.41	4.479
280.58	4.475
280.74	4.47
280.91	4.466
281.08	4.462
281.24	4.454
281.41	4.45
281.57	4.445
282.07	4.433
282.87	4.403
283.74	4.369
284.57	4.341
285.41	4.308
286.21	4.272
287.07	4.233
287.85	4.198
288.73	4.162
289.56	4.124
290.39	4.091
291.23	4.058
292.06	4.041
292.89	4.029
293.72	4.016
294.56	4.008
295.39	3.999
296.22	3.995
297.05	3.991
297.88	3.978
298.72	3.953
299.55	3.928
300.38	3.891
301.21	3.841
302.04	3.803
302.88	3.791
303.71	3.787
304.54	3.791
305.37	3.812
306.2	3.841
307.04	3.866
307.87	3.887
308.7	3.887
309.53	3.883
310.36	3.874
311.2	3.845
312.03	3.828
312.86	3.812
313.69	3.816
314.53	3.833
315.36	3.858
316.19	3.895
317.02	3.928
317.81	3.974
318.49	4.003
319.33	4.05
320.35	4.091
321.18	4.145
322.01	4.187
322.85	4.212
323.68	4.212
324.51	4.187
325.34	4.12
326.17	4.049
327.01	3.987
327.6	3.955
328.67	3.92
329.5	3.912
330.33	3.924
331.31	3.944
332	3.966
332.45	4.007
332.83	4.045
333.66	4.112
334.5	4.183
335.33	4.254
336.16	4.32
336.99	4.404
337.82	4.462
338.66	4.475
339.49	4.458
339.93	4.407
340.32	4.354
340.75	4.287
341.15	4.212
341.57	4.147
341.98	4.091
342.33	4.018
342.82	3.924
343.29	3.784
343.69	3.64
344.06	3.507
344.48	3.349
344.87	3.22
345.41	3.094
346.04	3
346.64	2.944
346.81	2.936
346.98	2.928
347.14	2.919
347.31	2.911
347.98	2.874
348.97	2.828
349.97	2.794
350.97	2.769
351.97	2.748
352.97	2.732
353.97	2.715
354.96	2.707
355.96	2.703
356.96	2.698
357.96	2.698
358.96	2.703
359.96	2.711
360.96	2.715
361.95	2.723
362.97	2.735
364.05	2.747
364.95	2.757
365.95	2.773
366.95	2.786
367.95	2.807
368.94	2.824
369.94	2.84
370.94	2.857
371.94	2.874
372.94	2.894
373.94	2.911
374.93	2.928
375.94	2.943
376.93	2.957
377.9	2.973
378.93	2.99
379.9	3.005
380.88	3.022
381.92	3.036
382.92	3.049
383.92	3.061
384.92	3.078
385.97	3.09
386.85	3.101
387.88	3.113
388.9	3.125
389.91	3.136
390.91	3.149
391.84	3.16
392.91	3.17
393.9	3.178
394.87	3.186
395.9	3.19
396.9	3.195
397.9	3.199
398.9	3.199
399.9	3.199
400.9	3.199
401.89	3.199
402.89	3.199
403.89	3.195
404.89	3.19
405.88	3.181
406.89	3.17
407.89	3.161
408.88	3.153
409.88	3.145
410.88	3.132
411.88	3.12
412.88	3.107
413.86	3.093
414.93	3.077
415.87	3.061
416.84	3.043
417.87	3.019
418.87	2.994
419.78	2.971
420.87	2.944
421.88	2.917
422.86	2.882
423.86	2.844
424.86	2.803
425.92	2.747
426.97	2.687
427.86	2.636
428.85	2.578
429.85	2.519
