Uv/Vis Spectrum: 3-Methylcyclopentanone
Formula: C6H10O
CAS: 1757-42-2
Instrument: Bausch and Lomb 505 or Beckman DU
Origin: INSTITUTE OF ENERGY PROBLEMS OF CHEMICAL PHYSICS, RAS
Wavelength (nm)	Logarithm epsilon
222.83	0.446
224.1	0.439
225.23	0.429
226.22	0.417
227.21	0.403
228.34	0.39
229.19	0.373
230.18	0.356
231.17	0.341
232.3	0.328
233.57	0.322
234.84	0.319
236.11	0.319
237.39	0.325
238.52	0.334
239.65	0.344
240.64	0.359
241.78	0.376
242.74	0.394
243.52	0.411
244.3	0.429
244.96	0.444
245.62	0.463
246.43	0.481
247.14	0.499
247.7	0.515
248.41	0.532
249.12	0.547
249.82	0.562
250.25	0.577
250.95	0.591
251.52	0.604
251.94	0.619
252.37	0.633
252.79	0.646
253.36	0.658
253.92	0.67
254.35	0.682
254.91	0.693
255.34	0.704
255.9	0.715
256.33	0.726
256.75	0.736
257.31	0.746
257.74	0.757
258.17	0.767
258.53	0.775
259.01	0.785
259.43	0.795
260	0.804
260.57	0.812
261	0.821
261.41	0.829
261.84	0.837
262.26	0.845
262.72	0.852
263.25	0.861
263.67	0.869
264.07	0.879
264.38	0.885
264.81	0.893
265.23	0.901
265.65	0.908
265.94	0.916
266.22	0.923
266.5	0.93
266.78	0.937
267.07	0.944
267.38	0.952
267.63	0.958
267.92	0.965
268.2	0.971
268.48	0.978
268.85	0.983
269.21	0.989
269.61	0.996
270.04	1.002
270.46	1.007
271.02	1.012
271.45	1.018
272.01	1.023
272.44	1.029
272.86	1.035
273.29	1.04
273.57	1.046
273.99	1.051
274.28	1.056
274.56	1.062
274.84	1.067
275.12	1.072
275.41	1.077
275.69	1.082
276.11	1.087
276.4	1.092
276.68	1.097
276.82	1.102
277.1	1.107
277.39	1.111
277.81	1.116
278.09	1.121
278.52	1.125
278.94	1.13
279.65	1.134
280.49	1.137
281.34	1.141
282.19	1.144
282.76	1.147
283.18	1.152
283.6	1.156
284.03	1.16
284.45	1.164
285.02	1.168
285.44	1.172
285.72	1.174
285.87	1.174
286.01	1.175
286.15	1.175
286.29	1.176
286.43	1.177
286.57	1.178
286.86	1.181
287.14	1.184
287.42	1.186
287.7	1.189
287.99	1.191
288.27	1.192
288.55	1.195
288.83	1.199
289.12	1.203
289.4	1.206
289.68	1.209
289.96	1.213
290.25	1.213
290.53	1.211
290.81	1.209
291.1	1.207
291.38	1.203
291.66	1.2
291.94	1.196
292.23	1.193
292.51	1.188
292.79	1.185
293.07	1.183
293.36	1.183
293.64	1.183
293.92	1.182
294.2	1.179
294.49	1.175
294.77	1.174
295.05	1.174
295.34	1.174
295.62	1.176
295.9	1.178
296.18	1.18
296.47	1.182
296.75	1.182
297.03	1.184
297.31	1.187
297.6	1.189
297.88	1.191
298.16	1.195
298.45	1.202
298.73	1.208
299.01	1.213
299.29	1.215
299.58	1.218
299.86	1.224
300.14	1.227
300.42	1.231
300.71	1.231
300.99	1.226
301.27	1.221
301.55	1.217
301.86	1.211
302.12	1.206
302.35	1.2
302.62	1.193
302.97	1.184
303.25	1.175
303.53	1.168
303.82	1.159
304.1	1.152
304.38	1.145
304.66	1.133
304.95	1.124
305.23	1.117
305.51	1.106
305.8	1.093
306.08	1.086
306.36	1.077
306.64	1.073
306.93	1.073
307.21	1.076
307.49	1.078
307.77	1.081
308.06	1.084
308.34	1.088
308.62	1.093
308.9	1.099
309.14	1.102
309.44	1.108
309.75	1.113
310.05	1.119
310.32	1.125
310.6	1.13
310.88	1.136
311.17	1.14
311.45	1.142
311.73	1.144
312.01	1.144
312.3	1.142
312.58	1.135
312.86	1.129
313.14	1.124
313.43	1.118
313.71	1.1
313.99	1.074
314.28	1.062
315.27	0.944
315.41	0.944
315.55	0.944
315.83	0.926
316.11	0.903
316.4	0.881
316.68	0.861
316.96	0.845
317.24	0.833
317.53	0.818
317.79	0.809
318.08	0.796
318.37	0.785
318.66	0.776
318.94	0.77
319.2	0.764
319.51	0.76
319.79	0.757
320.07	0.756
320.35	0.757
320.64	0.759
320.92	0.767
321.2	0.773
321.48	0.777
321.77	0.783
322.05	0.785
322.33	0.787
322.61	0.789
322.9	0.79
323.18	0.79
323.46	0.791
323.75	0.79
324.03	0.789
324.31	0.787
324.59	0.783
324.88	0.772
325.16	0.739
325.44	0.711
325.72	0.693
326.01	0.672
326.29	0.619
326.57	0.578
326.86	0.511
327.14	0.486
327.42	0.442
327.7	0.409
327.99	0.37
328.27	0.341
328.58	0.3
328.99	0.252
330.14	0.122
