Uv/Vis Spectrum: 1,4-Dimethyl-2-ethylbenzene
Formula: C10H14
CAS: 1758-88-9
Boiling point: 186.9
Instrument: unknown
Origin: INSTITUTE OF ENERGY PROBLEMS OF CHEMICAL PHYSICS, RAS
Wavelength (nm)	Logarithm epsilon
232.15	2.055
232.19	2.05
232.23	2.047
232.27	2.042
232.32	2.038
232.36	2.035
232.4	2.03
232.44	2.026
232.48	2.021
232.53	2.017
232.57	2.012
232.61	2.008
232.65	1.974
232.91	1.946
233.16	1.911
233.41	1.878
233.66	1.845
233.92	1.812
234.17	1.785
234.42	1.757
234.67	1.734
234.93	1.716
235.18	1.694
235.43	1.679
235.68	1.663
235.94	1.651
236.17	1.64
236.44	1.633
236.7	1.626
236.97	1.62
237.2	1.617
237.43	1.614
237.7	1.612
238.01	1.613
238.25	1.615
238.46	1.617
238.72	1.621
238.97	1.626
239.19	1.63
239.48	1.638
239.75	1.645
239.98	1.651
240.21	1.658
240.47	1.668
240.74	1.675
240.99	1.683
241.24	1.694
241.49	1.706
241.75	1.716
242	1.727
242.19	1.736
242.5	1.751
242.77	1.761
243.01	1.77
243.27	1.784
243.52	1.794
243.76	1.807
244.02	1.82
244.27	1.831
244.53	1.842
244.78	1.858
245.03	1.871
245.28	1.88
245.54	1.895
245.76	1.906
246.04	1.918
246.29	1.929
246.51	1.939
246.78	1.949
247.05	1.962
247.3	1.972
247.56	1.982
247.81	1.994
248.06	2.005
248.31	2.014
248.57	2.024
248.82	2.033
249.07	2.043
249.33	2.052
249.58	2.063
249.83	2.073
250.08	2.082
250.34	2.089
250.59	2.098
250.84	2.107
251.09	2.117
251.35	2.127
251.6	2.134
251.85	2.142
252.1	2.154
252.36	2.162
252.61	2.17
252.86	2.18
253.11	2.189
253.37	2.198
253.62	2.206
253.87	2.218
254.13	2.226
254.38	2.237
254.63	2.245
254.88	2.255
255.14	2.267
255.39	2.276
255.64	2.287
255.89	2.299
256.15	2.309
256.4	2.318
256.65	2.329
256.9	2.338
257.16	2.347
257.41	2.359
257.66	2.368
257.91	2.377
258.17	2.387
258.42	2.396
258.67	2.405
258.92	2.414
259.18	2.42
259.43	2.431
259.68	2.438
259.94	2.448
260.19	2.455
260.44	2.465
260.69	2.472
260.95	2.479
261.2	2.486
261.45	2.491
261.7	2.497
261.96	2.5
262.21	2.504
262.46	2.507
262.71	2.51
262.97	2.511
263.22	2.514
263.47	2.514
263.72	2.516
263.98	2.518
264.23	2.522
264.52	2.529
264.57	2.53
264.61	2.53
264.65	2.532
264.69	2.532
264.74	2.533
264.78	2.533
264.9	2.537
265.03	2.542
265.16	2.55
265.28	2.559
265.41	2.568
265.53	2.578
265.66	2.587
265.79	2.598
265.91	2.607
266.04	2.615
266.17	2.623
266.29	2.631
266.42	2.643
266.55	2.651
266.67	2.658
266.8	2.663
266.92	2.666
267.05	2.667
267.18	2.668
267.3	2.668
267.43	2.666
267.56	2.664
267.68	2.662
267.81	2.658
267.93	2.654
268.06	2.648
268.19	2.643
268.31	2.638
268.44	2.63
268.57	2.627
268.69	2.623
268.82	2.618
268.95	2.616
269.07	2.613
269.2	2.611
269.32	2.609
269.45	2.608
269.58	2.606
269.7	2.605
269.83	2.604
269.96	2.603
270.08	2.602
270.21	2.6
270.33	2.599
270.46	2.597
270.59	2.596
270.71	2.594
270.84	2.592
270.97	2.591
271.09	2.589
271.22	2.586
271.35	2.584
271.47	2.582
271.6	2.578
271.72	2.573
271.85	2.566
271.98	2.557
272.1	2.552
272.23	2.55
272.36	2.537
272.48	2.525
272.61	2.517
272.73	2.507
272.86	2.503
272.99	2.5
273.11	2.498
273.24	2.498
273.37	2.498
273.49	2.5
273.62	2.503
273.75	2.509
273.87	2.515
274	2.523
274.12	2.536
274.25	2.542
274.29	2.543
274.33	2.545
274.38	2.546
274.42	2.548
274.46	2.549
274.5	2.554
274.59	2.562
274.67	2.572
274.76	2.579
274.84	2.585
274.92	2.593
275.01	2.602
275.09	2.613
275.18	2.632
275.26	2.647
275.34	2.66
275.43	2.669
275.51	2.674
275.6	2.677
275.68	2.681
275.77	2.683
275.85	2.684
275.93	2.685
276.02	2.686
276.1	2.687
276.19	2.687
276.27	2.685
276.36	2.683
276.44	2.68
276.52	2.673
276.61	2.665
276.69	2.658
276.78	2.651
276.86	2.638
276.95	2.623
277.05	2.604
277.17	2.583
277.25	2.569
277.35	2.551
277.5	2.529
277.62	2.509
277.68	2.495
277.79	2.477
277.87	2.466
277.96	2.444
278.04	2.429
278.12	2.413
278.21	2.392
278.29	2.376
278.38	2.362
278.46	2.344
278.54	2.33
278.63	2.313
278.71	2.293
278.8	2.276
278.88	2.265
278.97	2.245
279.05	2.226
279.13	2.203
279.22	2.184
279.3	2.162
279.39	2.137
279.47	2.113
279.56	2.103
279.64	2.08
279.72	2.066
279.81	2.047
279.89	2.037
279.98	2.026
280.06	2.007
280.14	1.994
280.23	1.98
280.31	1.964
280.39	1.952
280.48	1.94
280.57	1.925
280.64	1.916
280.73	1.904
280.82	1.892
280.9	1.878
280.99	1.868
281.07	1.855
281.16	1.842
281.24	1.831
