Uv/Vis Spectrum: 3-methyl-2-(methylimino)-4-thiazolidinone
Formula: C5H8N2OS
CAS: 1762-57-8
Melting point: 144-146
Instrument: SF-16
Origin: INSTITUTE OF ENERGY PROBLEMS OF CHEMICAL PHYSICS, RAS
Wavelength (nm)	Logarithm epsilon
200.847	3.757
201.847	3.785
202.847	3.816
203.847	3.849
204.847	3.883
205.847	3.917
206.847	3.951
207.847	3.983
208.847	4.013
209.847	4.041
210.847	4.066
211.847	4.088
212.847	4.106
213.847	4.121
214.847	4.133
215.847	4.141
216.847	4.145
217.847	4.145
218.847	4.142
219.847	4.136
220.847	4.127
221.847	4.114
222.847	4.099
223.847	4.081
224.847	4.062
225.847	4.04
226.847	4.016
227.847	3.991
228.847	3.965
229.847	3.938
230.847	3.91
231.847	3.882
232.847	3.853
233.847	3.824
234.847	3.794
235.847	3.764
236.847	3.734
237.847	3.704
238.847	3.673
239.847	3.642
240.847	3.609
241.847	3.575
242.847	3.539
