Uv/Vis Spectrum: 3-(dimethylamino)cyclopenta[e][1,3]diazepine
Formula: C10H11N3
CAS: 17749-52-9
Melting point: 103
Instrument: Jasco ORD/UV-5
Origin: INSTITUTE OF ENERGY PROBLEMS OF CHEMICAL PHYSICS, RAS
Wavelength (nm)	Logarithm epsilon
241.435	3.656
242.435	3.684
243.435	3.71
244.435	3.735
245.435	3.758
246.435	3.78
247.435	3.8
248.435	3.819
249.435	3.837
250.435	3.854
251.435	3.87
252.435	3.886
253.435	3.901
254.435	3.917
255.435	3.932
256.435	3.947
257.435	3.963
258.435	3.979
259.435	3.996
260.435	4.013
261.435	4.031
262.435	4.049
263.435	4.069
264.435	4.089
265.435	4.11
266.435	4.133
267.435	4.157
268.435	4.182
269.435	4.21
270.435	4.239
271.435	4.271
272.218	4.28
273.218	4.336
274.218	4.393
275.218	4.448
276.218	4.496
277.218	4.534
278.218	4.562
279.218	4.58
280.218	4.59
281.218	4.594
282.218	4.594
283.097	4.59
284.097	4.589
285.097	4.594
286.097	4.603
287.097	4.614
288.097	4.626
289.097	4.639
290.097	4.651
291.097	4.662
292.097	4.672
293.097	4.68
294.097	4.687
295.097	4.692
296.097	4.696
297.097	4.699
298.097	4.701
299.097	4.703
300.097	4.704
301.097	4.705
302.097	4.706
303.097	4.707
304.097	4.708
305.097	4.708
306.097	4.707
307.097	4.705
308.862	4.698
309.862	4.683
310.862	4.657
311.862	4.627
312.862	4.597
313.862	4.569
314.862	4.542
315.862	4.513
316.195	4.514
317.195	4.448
318.195	4.363
319.195	4.271
320.195	4.179
321.195	4.093
322.195	4.017
323.195	3.953
324.195	3.903
325.195	3.865
326.195	3.839
327.195	3.822
328.195	3.812
329.195	3.806
330.195	3.801
332.008	3.786
333.008	3.774
334.008	3.764
335.008	3.756
336.008	3.75
337.008	3.745
338.008	3.741
339.008	3.739
340.008	3.737
341.008	3.736
342.008	3.736
343.008	3.736
344.008	3.737
345.008	3.739
346.008	3.74
347.008	3.742
348.008	3.744
349.008	3.747
350.008	3.749
351.008	3.752
352.008	3.754
353.008	3.757
354.008	3.76
355.008	3.763
356.008	3.766
357.008	3.768
358.008	3.771
359.008	3.774
360.008	3.777
361.008	3.78
362.008	3.783
363.008	3.786
364.008	3.788
365.008	3.791
366.008	3.793
367.008	3.795
368.008	3.797
369.008	3.798
370.008	3.799
371.008	3.799
372.008	3.799
373.008	3.797
374.008	3.794
375.008	3.79
376.008	3.784
377.008	3.776
378.008	3.767
378.776	3.76
379.776	3.741
380.776	3.726
381.776	3.708
382.776	3.684
383.776	3.651
384.776	3.609
385.776	3.56
386.776	3.507
387.776	3.454
388.871	3.407
