Uv/Vis Spectrum: Cobalt, tri-<mu>-carbonylnonacarbonyltetra-, tetrahedro
Formula: C12Co4O12
CAS: 17786-31-1
Instrument: Perkin-Elmer 320
Origin: INSTITUTE OF ENERGY PROBLEMS OF CHEMICAL PHYSICS, RAS
Wavelength (nm)	Logarithm epsilon
301.08	3.963
302.28	3.957
303.93	3.949
304.96	3.944
306.51	3.938
308.07	3.932
309.62	3.926
311.17	3.921
312.72	3.915
314.13	3.91
315.83	3.905
317.3	3.9
319	3.895
320.42	3.89
322.06	3.886
323.59	3.881
325.14	3.877
326.69	3.874
328.24	3.873
329.79	3.872
331.34	3.872
332.9	3.872
334.45	3.873
336	3.875
337.55	3.878
339.1	3.881
340.65	3.884
342.21	3.888
343.76	3.89
345.31	3.894
346.86	3.9
348.41	3.907
349.97	3.914
351.52	3.921
353.07	3.929
354.62	3.935
356.17	3.945
357.72	3.953
359.28	3.962
360.83	3.97
362.38	3.981
363.93	3.988
365.48	3.996
367.04	4.003
368.59	4.008
370.14	4.013
371.69	4.016
373.24	4.015
374.8	4.01
376.35	4.005
377.9	3.997
379.45	3.989
381	3.981
382.57	3.971
384.17	3.96
385.66	3.948
387.21	3.933
388.76	3.919
390.31	3.907
391.87	3.893
393.16	3.881
394.97	3.867
396.37	3.856
398.07	3.843
399.62	3.835
401.18	3.825
402.73	3.812
404.28	3.803
405.83	3.792
407.38	3.78
408.94	3.767
410.38	3.756
411.99	3.745
413.59	3.733
415.14	3.718
416.69	3.709
418.25	3.696
419.8	3.681
421.35	3.669
422.9	3.658
424.45	3.647
426.01	3.634
427.56	3.622
429.11	3.613
430.66	3.599
432.21	3.587
433.77	3.575
435.32	3.566
436.91	3.556
438.42	3.545
439.97	3.537
441.52	3.531
443.08	3.525
444.91	3.519
447.45	3.512
450.47	3.506
453.55	3.498
456.27	3.489
458.48	3.481
461.38	3.472
464.41	3.463
467.52	3.454
470.18	3.447
473.34	3.434
475.66	3.422
478.28	3.409
480.8	3.395
483.42	3.383
486.14	3.372
488.58	3.36
491.28	3.347
494.06	3.333
497	3.321
500.11	3.308
502.82	3.295
506.04	3.285
508.64	3.273
511.75	3.259
514.85	3.245
517.95	3.233
521.32	3.217
524.16	3.204
527.39	3.197
530.76	3.188
534.25	3.178
537.82	3.17
541.23	3.167
544.72	3.167
548.21	3.164
551.71	3.16
555.2	3.153
558.69	3.142
562.18	3.134
565.67	3.126
569.16	3.115
572.27	3.102
575.37	3.086
578.86	3.073
582.35	3.059
585.46	3.045
588.56	3.026
591.67	3.006
594.91	2.99
598.26	2.969
601.7	2.953
604.86	2.937
607.56	2.923
611.45	2.903
614.94	2.889
618.43	2.869
621.93	2.854
625.42	2.84
628.91	2.824
632.18	2.81
635.7	2.792
639.34	2.769
643.63	2.739
648.08	2.702
653.45	2.659
657.23	2.631
660.72	2.606
663.97	2.586
666.76	2.567
670.2	2.543
673.64	2.518
676.86	2.497
680.29	2.472
683.94	2.444
688.27	2.415
691.76	2.395
694.89	2.368
698.11	2.343
702.23	2.302
705.41	2.276
709.28	2.23
712.71	2.174
716.2	2.109
719.69	2.02
722.8	1.904
726.29	1.754
