Uv/Vis Spectrum: Silane, (4-bromophenoxy)trimethyl-
Formula: C9H13BrOSi
CAS: 17878-44-3
Instrument: Spektromom 201
Origin: INSTITUTE OF ENERGY PROBLEMS OF CHEMICAL PHYSICS, RAS
Wavelength (nm)	Logarithm epsilon
206.72	3.927
206.91	3.911
207.13	3.891
207.41	3.87
207.73	3.852
208.73	3.804
209.74	3.78
210.75	3.763
211.76	3.76
212.77	3.77
213.79	3.788
214.78	3.808
215.79	3.831
216.74	3.868
217.81	3.906
218.81	3.944
219.82	3.981
220.83	4.011
221.84	4.039
222.84	4.059
223.85	4.076
224.86	4.09
225.87	4.103
226.88	4.09
227.88	4.069
228.89	4.035
229.9	3.991
230.91	3.944
231.91	3.906
232.92	3.855
233.93	3.801
234.94	3.743
235.95	3.675
236.95	3.587
237.96	3.509
238.97	3.441
239.79	3.354
240.99	3.23
241.99	3.128
243	3.043
244.01	2.969
245.03	2.903
246.02	2.843
247.03	2.799
248.04	2.761
249.05	2.724
250.06	2.697
251.06	2.67
252.07	2.642
253.08	2.615
254.09	2.609
255.1	2.595
256.1	2.595
257.11	2.605
258.12	2.619
259.13	2.639
260.13	2.659
261.14	2.68
262.15	2.704
263.16	2.731
264.17	2.755
265.17	2.782
266.18	2.806
267.19	2.84
268.2	2.87
269.2	2.901
270.21	2.935
271.22	2.958
272.23	2.989
273.24	3.003
274.24	3.02
275.25	3.037
276.26	3.057
277.27	3.06
278.28	3.04
279.28	3.02
280.29	3.006
281.3	2.989
282.31	2.972
283.31	2.952
284.32	2.921
285.33	2.897
286.34	2.85
287.35	2.809
288.35	2.751
289.36	2.663
290.37	2.517
291.38	2.398
292.39	2.293
293.39	2.184
294.4	2.055
295.41	1.963
296.42	1.878
297.2	1.766
298.18	1.627
299.27	1.423
299.44	1.416
299.78	1.331
300.28	1.199
300.78	1.1
