Uv/Vis Spectrum: Diazene,phenyl(trimethylsilyl)-
Formula: C9H14N2Si
CAS: 17881-28-6
Instrument: Cary 14
Origin: INSTITUTE OF ENERGY PROBLEMS OF CHEMICAL PHYSICS, RAS
Wavelength (nm)	Logarithm epsilon
205.45	4.511
205.69	4.506
205.93	4.494
206.17	4.489
206.41	4.478
206.65	4.467
206.89	4.461
207.13	4.45
207.38	4.439
207.74	4.426
208.11	4.411
208.35	4.395
208.49	4.376
208.63	4.358
208.85	4.339
209.19	4.326
209.59	4.311
210.03	4.289
210.34	4.267
210.72	4.235
211.09	4.2
211.38	4.192
211.85	4.194
212.61	4.217
213.38	4.239
214.16	4.25
214.94	4.25
215.73	4.244
216.45	4.234
217.32	4.222
218.12	4.211
218.92	4.206
219.75	4.2
220.5	4.195
221.4	4.189
222.23	4.183
223.07	4.172
223.92	4.139
224.78	4.078
225.65	4.014
226.5	3.961
227.38	3.911
228.26	3.833
229.15	3.739
230.05	3.641
230.94	3.6
231.85	3.589
232.76	3.583
233.69	3.583
234.62	3.589
235.56	3.594
236.5	3.6
237.45	3.611
238.41	3.628
239.38	3.639
240.36	3.661
241.34	3.678
242.34	3.705
243.31	3.74
244.28	3.772
245.36	3.806
246.33	3.849
247.42	3.906
248.46	3.956
249.52	4.017
250.58	4.078
251.65	4.133
252.73	4.144
253.81	4.139
254.91	4.133
256.02	4.128
257.14	4.128
258.26	4.133
259.4	4.133
260.58	4.138
261.7	4.139
262.87	4.15
264.05	4.156
265.12	4.167
266.43	4.178
267.6	4.186
268.89	4.196
270.19	4.21
271.34	4.222
272.59	4.222
273.86	4.211
275.14	4.2
276.43	4.183
277.73	4.15
279.04	4.114
280.34	4.073
281.71	4.033
283.07	3.989
284.43	3.928
285.81	3.85
287.14	3.781
288.61	3.689
290.03	3.578
291.47	3.467
292.91	3.344
294.38	3.228
295.86	3.044
297.35	2.906
298.86	2.706
300.38	2.561
301.92	2.422
303.47	2.322
304.77	2.213
306.63	2.039
308.23	1.917
309.7	1.772
311.49	1.583
312.73	1.422
314.82	1.217
