Uv/Vis Spectrum: 1,3,5-Triphenyl-s-triazine-2,4,6(1H,3H,5H)-trione
Formula: C21H15N3O3
CAS: 1785-02-0
Melting point: 276
Instrument: Spektromom 201
Origin: INSTITUTE OF ENERGY PROBLEMS OF CHEMICAL PHYSICS, RAS
Wavelength (nm)	Logarithm epsilon
202.19	4.61
203.7	4.607
205.22	4.6
206.57	4.583
207.58	4.563
208.75	4.542
209.76	4.519
210.61	4.495
211.28	4.468
211.92	4.439
212.63	4.414
213.3	4.386
213.97	4.359
214.57	4.334
215.18	4.306
215.99	4.278
216.67	4.251
217.51	4.224
218.35	4.197
219.02	4.169
219.7	4.142
220.54	4.115
221.21	4.088
221.88	4.061
222.56	4.034
223.06	4.007
223.74	3.98
224.41	3.952
224.91	3.925
225.42	3.898
225.92	3.871
226.26	3.841
226.77	3.813
227.44	3.786
228.11	3.759
228.79	3.732
229.29	3.705
229.8	3.674
230.3	3.647
230.97	3.62
231.48	3.593
231.98	3.566
232.66	3.539
233.16	3.512
233.67	3.485
234.17	3.458
234.68	3.43
235.01	3.4
235.52	3.373
235.86	3.342
236.26	3.314
236.7	3.285
237.1	3.254
237.54	3.224
237.88	3.193
238.21	3.163
238.55	3.132
239.05	3.097
239.52	3.065
240.06	3.035
240.46	3.01
241	2.98
241.41	2.956
241.92	2.929
242.48	2.9
243.09	2.874
243.79	2.846
244.61	2.824
245.79	2.807
246.49	2.803
247.3	2.807
247.87	2.817
248.31	2.83
248.79	2.844
249.32	2.851
249.97	2.859
250.84	2.854
251.34	2.847
252.02	2.837
252.71	2.84
253.36	2.854
254.21	2.881
255.05	2.908
255.54	2.922
256.06	2.932
256.46	2.934
256.81	2.933
257.15	2.931
257.53	2.924
257.9	2.913
258.18	2.903
258.41	2.902
258.71	2.903
259.11	2.907
259.76	2.915
260.19	2.92
260.71	2.924
261.28	2.919
262.45	2.898
263.46	2.878
264.31	2.854
265.15	2.83
265.82	2.803
266.33	2.776
267	2.749
267.5	2.718
267.84	2.688
268.35	2.661
268.68	2.63
269.02	2.6
269.36	2.569
269.52	2.539
269.69	2.508
269.86	2.478
270.2	2.447
270.53	2.417
271.04	2.39
271.54	2.363
272.05	2.335
272.72	2.308
273.56	2.281
274.41	2.257
275.42	2.234
276.76	2.217
277.94	2.2
279.29	2.186
280.63	2.169
281.81	2.152
282.65	2.129
283.66	2.108
284.51	2.085
285.18	2.057
285.85	2.03
286.53	2.003
287.03	1.976
287.54	1.949
288.21	1.922
288.71	1.895
289.22	1.868
289.72	1.84
290.23	1.813
290.73	1.786
291.24	1.756
291.64	1.731
292.08	1.698
292.51	1.666
293	1.635
293.33	1.618
293.76	1.586
294.27	1.559
294.77	1.532
295.28	1.501
295.67	1.476
296.12	1.444
296.58	1.41
296.96	1.386
297.36	1.358
297.8	1.329
298.31	1.298
298.65	1.268
