Uv/Vis Spectrum: 1,8-Diethynylnaphthalene
Formula: C14H8
CAS: 18067-44-2
Melting point: 73-73.5
Instrument: Cary 14M
Origin: INSTITUTE OF ENERGY PROBLEMS OF CHEMICAL PHYSICS, RAS
Wavelength (nm)	Logarithm epsilon
201.15	4.509
201.54	4.509
201.92	4.509
202.31	4.509
202.69	4.509
203.08	4.509
203.46	4.509
211.15	4.496
212.69	4.48
213.46	4.472
214.23	4.461
215.77	4.426
217.31	4.402
218.08	4.399
218.85	4.397
219.62	4.399
221.92	4.406
222.69	4.408
223.46	4.412
224.23	4.417
225	4.423
227.31	4.445
229.62	4.487
230.38	4.496
231.92	4.535
232.69	4.555
233.46	4.599
234.23	4.645
238.08	4.693
238.85	4.651
239.62	4.599
240.38	4.522
241.15	4.48
241.92	4.412
243.46	4.356
244.23	4.312
245.77	4.263
247.31	4.209
248.46	4.187
249.23	4.169
250	4.134
250.38	4.117
250.77	4.093
251.92	4.04
253.08	3.992
254.62	3.939
255	3.928
255.38	3.895
255.77	3.869
256.15	3.856
256.54	3.849
256.92	3.849
257.31	3.856
257.69	3.863
258.08	3.885
258.46	3.95
258.85	3.964
259.23	3.966
259.62	3.966
260	3.966
260.38	3.964
260.77	3.961
261.15	3.913
261.54	3.904
261.92	3.85
262.31	3.836
262.69	3.81
263.08	3.753
264.62	3.653
266.15	3.56
266.92	3.508
267.31	3.492
268.08	3.455
268.46	3.436
268.85	3.411
269.23	3.396
269.62	3.37
270.38	3.33
270.77	3.322
271.15	3.319
271.54	3.317
271.92	3.315
272.31	3.317
272.69	3.32
275	3.341
275.38	3.344
276.92	3.361
278.85	3.385
279.23	3.388
279.62	3.396
280	3.398
281.54	3.423
281.92	3.429
282.31	3.433
282.69	3.44
284.23	3.462
286.15	3.515
288.85	3.554
290.38	3.602
293.08	3.646
294.62	3.665
295.77	3.685
296.15	3.692
296.54	3.699
298.85	3.758
299.62	3.782
301.54	3.83
303.85	3.874
304.23	3.876
306.15	3.902
306.92	3.924
307.31	3.93
307.69	3.944
309.62	3.974
310.38	3.976
310.77	3.977
311.15	3.981
311.54	3.985
311.92	3.985
312.31	3.987
314.62	4.003
315.77	4.005
316.15	4.009
316.54	4.011
318.08	4.02
319.62	4.075
320	4.091
320.38	4.114
320.77	4.123
321.15	4.125
321.54	4.121
321.92	4.115
322.31	4.115
323.08	4.103
323.46	4.101
323.85	4.099
324.23	4.099
324.62	4.099
325	4.101
325.38	4.106
325.77	4.11
326.15	4.115
326.54	4.117
326.92	4.066
327.31	4.025
327.69	3.985
328.46	3.961
328.85	3.933
329.23	3.924
330	3.891
330.38	3.889
330.77	3.887
331.15	3.887
331.54	3.887
331.92	3.887
333.46	3.93
334.23	3.97
334.62	3.972
335	3.977
335.38	3.977
335.77	3.977
336.15	3.974
336.54	3.97
336.92	3.953
337.31	3.95
337.69	3.948
338.08	3.946
338.46	3.946
338.85	3.946
339.23	3.952
339.62	4.045
340	4.077
340.38	4.101
340.77	4.097
341.54	4.022
341.92	3.911
342.31	3.841
342.69	3.782
343.08	3.736
343.85	3.666
344.23	3.609
344.62	3.565
345	3.488
345.38	3.444
345.77	3.381
346.15	3.335
346.54	3.306
