Uv/Vis Spectrum: 5-(phenylamino)-1,6-pyrenedione
Formula: C22H13NO2
CAS: 18084-56-5
Melting point: 231-231.5
Instrument: SF-14
Origin: INSTITUTE OF ENERGY PROBLEMS OF CHEMICAL PHYSICS, RAS
Wavelength (nm)	Logarithm epsilon
403.093	4.099
403.53	4.091
405.03	4.073
406.53	4.055
408.03	4.038
409.53	4.019
411.03	4.001
412.53	3.983
414.03	3.965
415.53	3.947
417.03	3.93
418.53	3.913
420.03	3.897
421.53	3.881
423.03	3.866
424.53	3.852
426.03	3.838
427.53	3.826
429.03	3.814
430.53	3.803
432.03	3.793
433.53	3.784
435.03	3.775
436.53	3.767
438.03	3.759
439.53	3.751
441.03	3.744
442.53	3.736
444.03	3.729
445.53	3.721
447.03	3.713
448.53	3.705
449.912	3.697
451.412	3.69
452.912	3.682
454.412	3.674
455.912	3.666
457.412	3.659
458.912	3.651
460.412	3.645
461.912	3.638
463.412	3.633
464.912	3.628
466.412	3.624
467.912	3.62
469.412	3.617
470.912	3.615
472.412	3.614
473.912	3.613
475.412	3.613
476.912	3.614
478.412	3.616
479.912	3.618
481.412	3.621
482.912	3.624
484.412	3.628
485.912	3.633
487.412	3.638
488.912	3.644
490.412	3.65
491.912	3.657
493.412	3.663
494.912	3.671
496.412	3.678
497.912	3.686
499.412	3.693
500.912	3.701
502.412	3.709
503.912	3.717
505.412	3.725
506.912	3.733
508.412	3.741
509.912	3.748
511.412	3.756
512.912	3.764
514.412	3.771
515.912	3.779
515.985	3.779
517.485	3.788
518.985	3.797
520.485	3.806
521.985	3.815
523.485	3.825
524.985	3.834
526.485	3.843
527.985	3.852
529.485	3.86
530.985	3.868
532.485	3.875
533.985	3.882
535.485	3.888
536.985	3.893
538.485	3.897
539.985	3.9
541.485	3.903
542.985	3.904
544.485	3.905
545.985	3.905
547.485	3.905
548.985	3.904
550.485	3.903
551.985	3.901
553.485	3.899
554.985	3.898
556.485	3.897
557.985	3.896
559.485	3.896
560.985	3.897
562.485	3.898
563.985	3.901
565.485	3.905
566.985	3.909
568.485	3.915
569.368	3.919
570.868	3.927
572.368	3.936
573.868	3.944
575.368	3.953
576.868	3.961
578.368	3.969
579.868	3.976
581.368	3.982
582.868	3.987
584.368	3.991
585.868	3.994
587.368	3.995
588.868	3.995
590.368	3.993
591.868	3.99
593.368	3.985
594.868	3.978
596.368	3.969
597.868	3.959
599.368	3.947
600.868	3.933
602.368	3.918
603.868	3.902
605.368	3.884
606.868	3.865
608.368	3.845
609.868	3.824
611.368	3.803
612.868	3.782
614.368	3.761
615.868	3.74
617.368	3.72
618.868	3.701
620.368	3.684
621.868	3.669
622.751	3.66
624.251	3.649
625.751	3.638
627.251	3.626
628.751	3.614
630.251	3.601
631.751	3.589
633.251	3.577
634.751	3.564
636.251	3.552
637.751	3.539
639.251	3.526
640.751	3.513
642.251	3.5
643.751	3.487
645.251	3.474
646.751	3.46
648.251	3.445
649.751	3.431
651.251	3.416
652.751	3.4
654.251	3.383
655.751	3.367
657.251	3.349
658.751	3.331
660.251	3.312
661.751	3.293
663.251	3.273
664.751	3.253
666.251	3.233
667.751	3.214
669.251	3.194
670.751	3.175
672.251	3.157
673.751	3.141
675.251	3.127
