Uv/Vis Spectrum: Benzenamine, 2,3,4,5,6-pentafluoro-N,N-dimethyl-
Formula: C8H6F5N
CAS: 1801-14-5
Boiling point: 161-163
Instrument: SF 16
Origin: INSTITUTE OF ENERGY PROBLEMS OF CHEMICAL PHYSICS, RAS
Wavelength (nm)	Logarithm epsilon
211.81	3.68
213.42	3.639
216.1	3.603
220.4	3.577
224.16	3.603
227.38	3.639
230.06	3.675
232.75	3.717
235.43	3.753
238.11	3.789
240.8	3.825
244.02	3.861
248.31	3.881
252.61	3.861
255.29	3.825
257.98	3.789
260.66	3.747
262.81	3.706
264.95	3.665
267.1	3.624
268.71	3.583
270.86	3.541
273.01	3.5
275.15	3.459
277.84	3.423
279.99	3.381
282.67	3.34
284.82	3.299
286.96	3.258
289.11	3.217
290.72	3.17
293.41	3.129
295.02	3.088
297.7	3.052
299.31	3.01
302	2.974
304.14	2.933
306.83	2.897
309.51	2.856
311.66	2.814
314.34	2.778
317.03	2.737
320.25	2.701
323.47	2.67
327.23	2.639
331.52	2.613
335.81	2.588
340.11	2.572
344.4	2.552
348.7	2.526
352.46	2.5
356.21	2.474
359.97	2.443
363.73	2.412
366.95	2.376
370.71	2.345
373.93	2.315
377.15	2.278
380.37	2.242
383.05	2.206
386.28	2.175
388.42	2.134
391.64	2.098
