Uv/Vis Spectrum: 1H-Tetrazole, 5-phenyl-
Formula: C7H6N4
CAS: 18039-42-4
Melting point: 215 dec
Instrument: Beckman DU
Origin: INSTITUTE OF ENERGY PROBLEMS OF CHEMICAL PHYSICS, RAS
Wavelength (nm)	Logarithm epsilon
204.59	3.636
204.74	3.638
204.89	3.641
205.05	3.643
205.2	3.645
205.35	3.648
205.51	3.65
205.66	3.65
205.81	3.652
205.97	3.654
206.12	3.657
206.73	3.666
207.5	3.679
208.26	3.697
209.02	3.713
209.79	3.731
210.55	3.761
211.32	3.784
212.08	3.809
212.85	3.836
213.61	3.865
214.38	3.886
215.14	3.908
215.91	3.931
216.67	3.952
217.44	3.972
218.2	3.995
218.97	4.017
219.73	4.036
220.5	4.054
221.26	4.072
222.03	4.09
222.79	4.104
223.56	4.12
224.32	4.133
225.09	4.144
225.85	4.156
226.62	4.165
227.38	4.174
228.15	4.181
228.91	4.188
229.67	4.188
230.44	4.185
231.2	4.176
231.97	4.165
232.73	4.156
233.5	4.144
234.26	4.131
235.03	4.117
235.79	4.104
236.56	4.09
237.32	4.074
238.09	4.056
238.85	4.038
239.62	4.015
240.38	3.99
241.15	3.97
241.91	3.938
242.68	3.906
243.44	3.872
244.21	3.825
244.97	3.779
245.74	3.736
246.5	3.688
247.27	3.641
248.03	3.589
248.8	3.536
249.56	3.493
250.33	3.436
251.09	3.377
251.85	3.316
252.62	3.282
253.38	3.219
254.15	3.164
254.91	3.112
255.68	3.067
256.44	3.012
257.21	2.958
257.97	2.926
258.74	2.903
259.5	2.88
260.27	2.86
261.03	2.849
261.8	2.835
262.56	2.821
263.33	2.812
264.09	2.799
264.86	2.781
265.62	2.758
266.39	2.738
267.15	2.713
267.92	2.688
268.68	2.658
269.45	2.624
270.21	2.601
270.98	2.563
271.74	2.52
272.5	2.47
273.27	2.411
274.03	2.352
274.8	2.238
