Uv/Vis Spectrum: 1,1'-Biphenyl, 2-ethyl-
Formula: C14H14
CAS: 1812-51-7
Melting point: - 6
Boiling point: 128/ 11 mm
Instrument: unknown
Origin: INSTITUTE OF ENERGY PROBLEMS OF CHEMICAL PHYSICS, RAS
Wavelength (nm)	Logarithm epsilon
221.02	3.07
221.24	3.062
221.54	3.055
221.88	3.051
222.26	3.05
222.65	3.049
223.03	3.05
223.42	3.052
223.8	3.054
224.18	3.058
224.57	3.059
224.95	3.062
225.34	3.064
225.68	3.067
226.06	3.069
226.45	3.071
226.83	3.073
227.17	3.077
227.56	3.079
227.94	3.082
228.33	3.084
228.67	3.087
229.05	3.089
229.39	3.092
229.78	3.093
230.12	3.097
230.5	3.098
230.89	3.1
231.27	3.102
231.66	3.102
232.04	3.103
232.43	3.104
232.81	3.105
233.2	3.105
233.58	3.105
233.96	3.105
234.35	3.105
234.73	3.104
235.12	3.102
235.5	3.1
235.89	3.099
236.23	3.096
236.61	3.093
236.95	3.088
237.29	3.083
237.64	3.079
237.98	3.074
238.32	3.069
238.58	3.063
238.92	3.058
239.22	3.051
239.52	3.046
239.81	3.04
240.11	3.034
240.37	3.027
240.67	3.021
240.88	3.013
241.14	3.007
241.44	3
241.65	2.993
241.91	2.986
242.12	2.978
242.38	2.971
242.59	2.963
242.85	2.956
243.1	2.949
243.32	2.941
243.57	2.934
243.74	2.925
243.96	2.918
244.17	2.911
244.43	2.903
244.64	2.896
244.85	2.888
245.07	2.88
245.28	2.873
245.54	2.865
245.71	2.857
245.96	2.849
246.18	2.842
246.35	2.833
246.56	2.826
246.82	2.819
247.03	2.811
247.24	2.804
247.42	2.795
247.63	2.787
247.84	2.78
248.06	2.772
248.27	2.765
248.48	2.757
248.7	2.749
248.91	2.74
249.12	2.733
249.34	2.725
249.55	2.717
249.76	2.709
249.98	2.7
250.19	2.693
250.4	2.684
250.62	2.677
250.83	2.669
251.05	2.66
251.26	2.652
251.47	2.644
251.69	2.637
251.9	2.63
252.11	2.622
252.28	2.614
252.5	2.606
252.71	2.599
252.92	2.59
253.14	2.582
253.31	2.573
253.52	2.566
253.74	2.559
253.95	2.551
254.16	2.543
254.38	2.534
254.55	2.526
254.76	2.519
254.97	2.511
255.19	2.504
255.4	2.495
255.61	2.488
255.79	2.479
256	2.472
256.17	2.464
256.38	2.456
256.6	2.449
256.77	2.44
256.98	2.433
257.19	2.426
257.41	2.417
257.62	2.41
257.83	2.401
258.01	2.393
258.22	2.385
258.43	2.378
258.65	2.371
258.86	2.362
259.07	2.355
259.24	2.346
259.46	2.338
259.67	2.329
259.88	2.322
260.1	2.315
260.27	2.306
260.48	2.299
260.7	2.291
260.91	2.284
261.12	2.275
261.34	2.267
261.55	2.259
261.72	2.25
261.98	2.243
262.19	2.235
262.4	2.228
262.62	2.219
262.83	2.211
263.04	2.203
263.26	2.195
263.51	2.188
263.73	2.179
263.94	2.171
264.15	2.163
264.37	2.155
264.58	2.148
264.75	2.139
265.01	2.132
265.22	2.123
265.44	2.116
265.65	2.108
265.86	2.101
266.08	2.094
266.29	2.085
266.5	2.077
266.72	2.069
266.93	2.062
267.14	2.055
267.36	2.047
267.53	2.039
267.78	2.031
268	2.023
268.21	2.015
268.43	2.007
268.68	2
268.89	1.991
269.11	1.984
269.32	1.976
269.54	1.969
269.79	1.962
269.96	1.953
270.18	1.946
270.39	1.937
270.65	1.93
