Uv/Vis Spectrum: Phenyl-2-pyridyl ketoxime
Formula: C12H10N2O
CAS: 1826-28-4
Melting point: 150-154
Instrument: Unicam SP 800
Origin: INSTITUTE OF ENERGY PROBLEMS OF CHEMICAL PHYSICS, RAS
Wavelength (nm)	Logarithm epsilon
243.25	3.9
243.93	3.927
244.94	3.948
245.96	3.968
247.31	3.981
248.66	3.995
250.18	3.998
251.7	3.995
253.22	3.988
254.57	3.975
255.93	3.961
257.28	3.948
258.63	3.931
259.81	3.914
260.99	3.897
262.35	3.88
263.7	3.87
265.22	3.863
266.74	3.863
268.26	3.86
269.78	3.856
271.3	3.849
272.82	3.846
274.34	3.839
275.86	3.833
277.21	3.822
278.73	3.812
280.09	3.799
281.44	3.782
282.79	3.768
283.97	3.748
285.15	3.728
286.17	3.707
287.18	3.684
288.2	3.663
289.04	3.64
289.89	3.616
290.73	3.592
291.58	3.569
292.25	3.541
293.1	3.518
293.77	3.491
294.45	3.464
295.12	3.437
295.63	3.41
296.31	3.382
296.98	3.355
297.49	3.328
298	3.298
298.5	3.271
299.18	3.244
299.69	3.217
300.19	3.19
300.87	3.162
301.37	3.135
301.88	3.108
302.56	3.081
303.06	3.054
303.57	3.027
304.08	3
304.59	2.973
305.09	2.946
305.6	2.915
306.11	2.888
306.61	2.858
307.12	2.827
307.63	2.797
307.96	2.767
308.47	2.739
308.98	2.712
309.32	2.682
309.82	2.655
310.33	2.628
310.5	2.597
310.84	2.567
311.34	2.54
311.85	2.509
312.19	2.479
312.53	2.448
313.03	2.421
313.37	2.391
313.88	2.36
314.22	2.33
314.55	2.3
314.89	2.269
315.23	2.239
315.74	2.212
316.07	2.181
316.41	2.151
316.75	2.12
317.26	2.093
317.59	2.063
317.76	2.032
318.1	2.002
318.61	1.975
318.95	1.944
319.62	1.917
320.64	1.893
321.82	1.873
323.17	1.856
324.52	1.839
325.87	1.826
327.23	1.812
328.58	1.795
329.93	1.778
331.11	1.762
332.29	1.741
333.48	1.721
334.32	1.697
335.34	1.677
336.35	1.657
337.36	1.636
338.21	1.609
339.05	1.586
339.9	1.558
340.74	1.531
341.42	1.504
342.26	1.477
342.94	1.45
343.45	1.423
344.29	1.396
344.8	1.369
345.3	1.342
345.81	1.315
346.32	1.288
346.82	1.261
