Uv/Vis Spectrum: Methyl vinyl sulfide
Formula: C3H6S
CAS: 1822-74-8
Boiling point: 69.5
Instrument: Beckman quartz spectrophotometer
Origin: INSTITUTE OF ENERGY PROBLEMS OF CHEMICAL PHYSICS, RAS
Wavelength (nm)	Logarithm epsilon
211.82	4.419
212.13	4.424
212.44	4.424
212.75	4.43
213.06	4.435
213.37	4.435
213.68	4.441
213.99	4.441
214.3	4.446
214.61	4.451
214.93	4.451
215.24	4.457
215.55	4.457
215.86	4.462
216.17	4.468
216.48	4.468
216.79	4.457
217.41	4.457
218.03	4.457
218.66	4.457
219.28	4.457
219.9	4.451
220.52	4.451
221.14	4.441
221.77	4.435
222.39	4.413
223.01	4.386
223.63	4.354
224.25	4.322
225.19	4.089
225.5	4.078
225.81	4.067
226.12	4.062
226.43	4.051
226.74	4.04
227.05	4.035
227.36	4.024
227.67	4.04
228.3	4.04
228.92	4.035
229.54	4.035
230.16	4.019
230.78	4.019
231.41	4.002
232.03	3.986
232.65	3.97
233.27	3.948
233.89	3.932
234.51	3.916
235.14	3.9
235.76	3.894
236.38	3.878
237	3.867
237.62	3.84
238.25	3.797
238.87	3.781
239.49	3.764
240.11	3.737
240.73	3.71
241.36	3.689
241.98	3.672
242.6	3.651
243.22	3.602
243.84	3.57
244.47	3.548
245.09	3.521
245.71	3.499
246.33	3.462
246.95	3.44
247.57	3.413
248.2	3.386
248.82	3.359
249.44	3.326
250.06	3.299
250.68	3.267
251.31	3.229
251.93	3.197
252.55	3.159
253.17	3.121
253.79	3.094
254.42	3.023
255.04	2.996
255.66	2.953
256.28	2.904
256.9	2.867
257.52	2.823
258.15	2.785
258.77	2.742
259.39	2.694
260.01	2.645
260.63	2.602
261.26	2.531
261.88	2.477
262.5	2.439
263.12	2.391
263.74	2.315
264.37	2.245
264.99	2.212
265.61	2.115
266.23	2.023
266.85	1.958
267.48	1.898
268.1	1.844
268.72	1.785
269.34	1.736
269.96	1.682
270.58	1.639
271.21	1.601
271.83	1.552
272.45	1.487
273.07	1.45
273.69	1.406
274.32	1.368
274.94	1.341
275.56	1.298
276.18	1.249
276.8	1.222
277.43	1.19
278.05	1.163
278.67	1.12
279.29	1.093
279.91	1.066
280.53	1.038
281.16	1.011
281.78	0.984
282.4	0.941
283.02	0.919
283.64	0.892
284.27	0.865
284.89	0.844
285.51	0.828
286.13	0.811
286.75	0.806
287.38	0.757
288	0.736
288.62	0.725
289.24	0.692
289.86	0.681
290.49	0.665
291.11	0.649
291.73	0.633
292.35	0.617
292.97	0.595
293.59	0.579
294.22	0.562
294.84	0.546
295.46	0.53
296.08	0.508
297.33	0.487
297.95	0.476
298.57	0.465
299.19	0.46
299.81	0.449
300.44	0.438
301.06	0.416
301.68	0.406
302.3	0.395
302.92	0.384
303.54	0.373
304.17	0.362
304.79	0.352
305.41	0.341
306.03	0.325
306.65	0.325
307.28	0.308
307.9	0.297
308.52	0.287
309.14	0.276
309.76	0.265
310.39	0.254
311.01	0.243
311.63	0.227
312.25	0.216
312.87	0.206
313.5	0.2
314.12	0.189
314.74	0.184
315.36	0.178
315.98	0.162
317.23	0.151
318.47	0.13
