Uv/Vis Spectrum: N,N'-(1,4-dihydro-1,4-dioxo-2,3-naphthalenediyl)bis-acetamide
Formula: C14H12N2O4
CAS: 18690-85-2
Melting point: 239-243 dec.
Instrument: SF-16
Origin: INSTITUTE OF ENERGY PROBLEMS OF CHEMICAL PHYSICS, RAS
Wavelength (nm)	Logarithm epsilon
215.546	4.218
216.128	4.216
217.128	4.211
218.128	4.205
219.128	4.198
220.128	4.192
221.128	4.185
222.128	4.178
223.128	4.172
224.128	4.166
225.128	4.16
226.128	4.156
227.128	4.152
228.128	4.15
229.128	4.148
230.128	4.148
231.128	4.148
232.128	4.151
233.128	4.154
234.128	4.159
235.128	4.165
236.128	4.173
237.128	4.182
238.128	4.192
239.128	4.203
240.128	4.216
241.128	4.23
241.997	4.243
242.997	4.26
243.997	4.276
244.997	4.291
245.997	4.305
246.997	4.318
247.997	4.33
248.997	4.341
249.997	4.351
250.997	4.36
251.997	4.367
252.997	4.372
253.997	4.376
254.997	4.377
255.997	4.376
256.997	4.373
257.997	4.367
258.997	4.36
259.997	4.35
260.997	4.34
261.997	4.327
262.997	4.314
263.997	4.3
264.997	4.286
265.997	4.273
266.997	4.26
267.997	4.247
268.997	4.236
269.997	4.226
270.997	4.217
271.997	4.209
272.997	4.202
273.997	4.197
274.997	4.192
275.997	4.187
276.997	4.182
277.997	4.177
278.997	4.171
279.997	4.165
280.997	4.158
281.997	4.151
282.549	4.146
283.549	4.138
284.549	4.13
285.549	4.122
286.549	4.113
287.549	4.102
288.549	4.09
289.549	4.075
290.549	4.058
291.549	4.039
292.549	4.017
293.549	3.994
294.549	3.969
295.549	3.942
296.549	3.914
297.549	3.885
298.549	3.856
299.549	3.827
300.549	3.798
301.549	3.77
302.549	3.742
303.549	3.716
304.549	3.691
305.066	3.676
306.066	3.656
307.066	3.636
308.066	3.615
309.066	3.595
310.066	3.576
311.066	3.559
312.066	3.543
313.066	3.53
314.066	3.518
315.066	3.509
316.066	3.501
317.066	3.495
318.066	3.492
319.066	3.489
320.066	3.489
321.066	3.489
322.066	3.49
323.066	3.492
324.066	3.494
325.007	3.497
326.007	3.497
327.007	3.498
328.007	3.5
329.007	3.501
330.007	3.502
331.007	3.502
332.007	3.503
333.007	3.502
334.007	3.502
335.007	3.5
336.007	3.498
337.007	3.494
338.007	3.49
339.007	3.485
340.007	3.479
341.007	3.472
342.007	3.464
343.007	3.455
344.007	3.445
345.007	3.434
346.007	3.422
347.007	3.41
348.007	3.397
349.007	3.383
350.007	3.369
351.007	3.355
352.007	3.341
353.007	3.326
354.007	3.312
354.88	3.299
355.88	3.287
356.88	3.276
357.88	3.265
358.88	3.255
359.88	3.246
360.88	3.237
361.88	3.23
362.88	3.224
363.88	3.219
364.88	3.215
365.88	3.212
366.88	3.21
367.88	3.208
368.88	3.208
369.88	3.208
370.88	3.209
371.88	3.21
372.88	3.212
373.88	3.215
374.88	3.217
375.88	3.22
376.88	3.222
377.88	3.225
378.88	3.228
379.88	3.23
380.383	3.232
381.383	3.235
382.383	3.237
383.383	3.24
384.383	3.242
385.383	3.244
386.383	3.246
387.383	3.248
388.383	3.25
389.383	3.252
390.383	3.253
391.383	3.254
392.383	3.255
393.383	3.255
394.383	3.255
395.383	3.255
396.383	3.255
397.383	3.255
398.383	3.254
399.383	3.253
400.383	3.251
401.383	3.249
402.383	3.247
403.383	3.245
404.383	3.242
405.383	3.239
406.383	3.236
407.383	3.233
408.383	3.229
409.383	3.225
410.383	3.221
411.383	3.216
412.383	3.211
413.383	3.206
414.383	3.201
415.383	3.195
416.383	3.189
417.383	3.183
418.383	3.177
419.383	3.17
420.383	3.164
421.383	3.157
422.383	3.149
423.383	3.142
424.383	3.134
425.383	3.126
426.383	3.118
427.383	3.109
428.383	3.1
429.383	3.091
430.383	3.081
431.383	3.072
432.383	3.062
433.383	3.051
434.383	3.041
435.383	3.03
436.383	3.018
437.383	3.006
438.383	2.994
439.383	2.982
440.383	2.969
441.383	2.955
442.383	2.941
443.383	2.927
444.383	2.912
445.383	2.897
446.383	2.881
447.383	2.865
448.383	2.849
449.383	2.831
450.383	2.813
451.383	2.795
452.383	2.776
453.383	2.756
454.383	2.736
455.383	2.716
456.383	2.694
457.383	2.672
458.383	2.65
459.383	2.627
460.383	2.603
461.383	2.579
462.383	2.554
463.383	2.528
464.383	2.502
465.383	2.476
466.383	2.449
467.383	2.421
468.383	2.393
469.383	2.365
470.383	2.336
471.383	2.307
472.383	2.277
473.383	2.248
474.383	2.218
