Uv/Vis Spectrum: 1-Hydroxy-L-proline
Formula: C5H9NO3
CAS: 18610-59-8
Instrument: Beckman DU
Origin: INSTITUTE OF ENERGY PROBLEMS OF CHEMICAL PHYSICS, RAS
Wavelength (nm)	Logarithm epsilon
200.54	2.114
200.69	2.11
200.9	2.104
201.32	2.091
201.7	2.075
202.15	2.057
202.69	2.033
203.23	2.006
203.77	1.977
204.31	1.953
204.84	1.929
205.39	1.907
205.69	1.893
205.93	1.882
206.2	1.869
206.46	1.855
207	1.826
207.54	1.801
208.08	1.775
208.65	1.749
209.16	1.723
209.7	1.698
210.24	1.669
210.77	1.641
211.31	1.611
211.85	1.579
212.39	1.551
212.93	1.523
213.47	1.497
214	1.471
214.53	1.447
215.05	1.417
215.62	1.386
216.21	1.352
216.69	1.325
217.24	1.296
217.78	1.266
218.32	1.235
218.81	1.202
219.39	1.164
219.94	1.132
220.51	1.1
220.98	1.074
221.5	1.047
222.09	1.016
222.56	0.99
223.16	0.958
223.59	0.933
224.18	0.904
224.78	0.872
225.28	0.847
225.76	0.824
226.4	0.789
226.94	0.766
227.47	0.741
228.01	0.715
228.54	0.686
229.09	0.657
229.63	0.624
