Uv/Vis Spectrum: Benzene, 1-methoxy-4-(methylthio)-
Formula: C8H10OS
CAS: 1879-16-9
Boiling point: 119/ 15mm
Instrument: Unicam SP 500
Origin: INSTITUTE OF ENERGY PROBLEMS OF CHEMICAL PHYSICS, RAS
Wavelength (nm)	Logarithm epsilon
218.06	3.741
218.17	3.743
218.28	3.743
218.39	3.744
218.5	3.744
218.61	3.746
218.72	3.746
218.83	3.748
218.94	3.748
219.04	3.748
219.15	3.749
219.7	3.754
221.33	3.783
221.88	3.792
222.42	3.804
223.51	3.822
224.06	3.832
224.6	3.842
225.15	3.858
225.69	3.866
226.24	3.873
226.78	3.882
227.33	3.888
227.87	3.896
228.42	3.903
228.96	3.905
229.51	3.906
230.05	3.903
230.59	3.902
231.14	3.896
231.68	3.89
232.23	3.883
232.77	3.874
233.32	3.868
233.86	3.857
234.41	3.849
234.95	3.841
235.5	3.836
236.59	3.812
237.13	3.802
237.68	3.792
238.22	3.783
238.77	3.775
239.86	3.761
240.4	3.754
240.95	3.749
241.49	3.744
242.04	3.74
243.13	3.738
243.67	3.74
245.31	3.756
246.94	3.777
247.48	3.781
248.03	3.786
248.57	3.793
250.21	3.815
250.75	3.823
251.3	3.829
251.84	3.836
252.39	3.844
252.93	3.852
253.48	3.861
254.02	3.868
255.11	3.885
255.66	3.889
256.2	3.896
256.75	3.902
257.29	3.908
257.84	3.911
258.38	3.916
258.93	3.919
259.47	3.918
260.02	3.917
260.56	3.914
261.11	3.909
261.65	3.898
262.2	3.888
262.74	3.881
263.28	3.862
263.83	3.849
264.37	3.836
264.92	3.821
265.46	3.801
266.01	3.783
266.55	3.762
267.1	3.736
267.64	3.71
268.19	3.678
268.73	3.644
269.28	3.622
269.82	3.588
270.37	3.553
270.91	3.529
271.46	3.507
272	3.465
272.55	3.432
273.09	3.396
273.64	3.369
274.18	3.349
274.73	3.332
275.27	3.314
275.82	3.282
276.36	3.267
277.89	3.231
278.87	3.22
280.83	3.208
281.81	3.208
282.9	3.208
285.84	3.191
286.93	3.179
287.91	3.173
288.89	3.167
290.85	3.16
291.83	3.154
293.8	3.147
296.96	3.134
298.92	3.106
