Uv/Vis Spectrum: Benzoic acid, 3-cyano-
Formula: C8H5NO2
CAS: 1877-72-1
Melting point: 217
Instrument: Unicam SP 700
Origin: INSTITUTE OF ENERGY PROBLEMS OF CHEMICAL PHYSICS, RAS
Wavelength (nm)	Logarithm epsilon
208.53	4.417
208.7	4.42
208.86	4.423
209.06	4.427
209.19	4.431
209.38	4.436
209.62	4.443
209.89	4.448
210.27	4.447
210.6	4.439
210.87	4.429
211.04	4.42
211.87	4.339
212.71	4.271
213.55	4.223
214.38	4.186
215.22	4.159
216.05	4.135
216.89	4.111
217.67	4.097
218.56	4.088
219.4	4.081
220.23	4.074
221.07	4.074
221.91	4.074
222.74	4.074
223.58	4.074
224.41	4.074
225.25	4.077
226.09	4.077
226.92	4.077
227.76	4.074
228.6	4.071
229.43	4.057
230.27	4.043
231.1	4.03
231.94	4.009
232.78	3.979
233.61	3.945
234.45	3.901
235.28	3.857
236.12	3.779
236.96	3.684
237.79	3.606
238.63	3.528
239.09	3.49
239.65	3.44
239.88	3.424
240.25	3.397
240.67	3.369
241	3.348
241.32	3.328
241.69	3.312
242.16	3.291
242.5	3.267
242.98	3.243
243.48	3.209
243.98	3.178
244.48	3.155
244.98	3.121
245.48	3.09
245.99	3.06
246.49	3.016
246.99	2.988
247.49	2.951
247.99	2.917
248.49	2.887
249	2.86
249.5	2.832
250	2.802
250.5	2.782
251	2.754
251.51	2.734
252.01	2.717
252.51	2.7
253.01	2.683
253.51	2.67
254.01	2.653
254.35	2.644
255.02	2.636
255.37	2.629
256.02	2.619
256.51	2.612
257.04	2.603
257.62	2.595
258.1	2.591
258.53	2.589
259.03	2.588
259.49	2.589
260.03	2.592
260.54	2.595
261.01	2.598
261.54	2.603
262.03	2.607
262.54	2.612
263.09	2.616
263.55	2.622
264.05	2.632
264.55	2.639
265.05	2.649
265.55	2.656
266.05	2.666
266.56	2.673
267.34	2.682
267.92	2.689
268.49	2.697
268.89	2.701
269.29	2.707
269.59	2.711
270.08	2.717
270.61	2.72
271.07	2.724
271.58	2.729
272.07	2.737
272.58	2.741
273.06	2.747
273.58	2.754
274.08	2.765
274.58	2.771
275.08	2.782
275.57	2.791
276.09	2.802
276.59	2.815
277.09	2.826
277.59	2.836
278.09	2.839
278.6	2.836
279.1	2.815
279.6	2.788
280.1	2.771
280.6	2.754
281.1	2.734
281.61	2.717
282.11	2.707
282.67	2.703
283.51	2.705
284.61	2.724
285.32	2.756
285.67	2.774
285.98	2.799
286.29	2.817
286.64	2.823
287	2.815
287.31	2.777
287.75	2.714
288.13	2.653
288.63	2.558
289.13	2.49
289.63	2.422
290.13	2.354
290.64	2.286
291.14	2.222
291.64	2.154
292.14	2.086
292.64	2.022
293.12	1.964
293.94	1.915
294.72	1.892
295.79	1.865
296.81	1.844
297.83	1.828
299	1.811
300.33	1.798
301.84	1.788
303.34	1.788
304.68	1.798
306.19	1.805
307.53	1.815
309.03	1.818
310.54	1.818
312.04	1.811
313.55	1.801
315.05	1.798
316.56	1.798
318.06	1.794
319.57	1.794
320.9	1.781
322.07	1.761
322.85	1.74
323.75	1.713
324.75	1.693
325.59	1.669
326.59	1.645
327.76	1.625
328.76	1.604
