Uv/Vis Spectrum: 2-Methyl-1-butanethiol
Formula: C5H12S
CAS: 1878-18-8
Boiling point: 116-117
Instrument: unknown
Origin: INSTITUTE OF ENERGY PROBLEMS OF CHEMICAL PHYSICS, RAS
Wavelength (nm)	Logarithm epsilon
205	2.428
205.17	2.422
205.33	2.416
205.5	2.409
205.67	2.403
205.83	2.397
206	2.391
206.33	2.38
207	2.355
207.67	2.334
208.33	2.315
209	2.3
209.67	2.285
210.33	2.275
211	2.262
211.67	2.252
212.33	2.237
213	2.233
213.67	2.224
214.33	2.22
215	2.214
215.67	2.212
216.33	2.209
217	2.205
217.67	2.203
218.33	2.201
219	2.199
219.67	2.197
220.33	2.195
221	2.195
221.67	2.195
222.33	2.197
223	2.199
223.67	2.199
224.33	2.197
225	2.197
225.67	2.195
226.33	2.191
227	2.188
227.67	2.186
228.33	2.184
229	2.18
229.67	2.178
230.33	2.176
231	2.172
231.67	2.167
232.33	2.165
233	2.159
233.67	2.151
234.33	2.146
235	2.14
235.67	2.136
236.33	2.129
237	2.121
237.67	2.117
238.33	2.111
239	2.102
239.67	2.096
240.33	2.087
241	2.079
241.67	2.068
242.33	2.064
243	2.058
243.67	2.049
244.33	2.037
245	2.026
245.67	2.016
246.33	2.003
247	1.991
247.67	1.974
248.33	1.961
249	1.944
249.67	1.929
250.33	1.911
251	1.881
251.67	1.86
252.33	1.837
253	1.809
253.67	1.78
254.33	1.746
255	1.704
255.67	1.668
256.33	1.635
257	1.597
257.67	1.534
258.33	1.479
259	1.42
259.67	1.346
260.33	1.285
261	1.216
261.67	1.157
262.33	1.096
263	1.028
263.67	0.98
264.33	0.934
265	0.881
265.67	0.839
266.33	0.793
267	0.753
267.67	0.696
268.33	0.654
269	0.609
269.67	0.572
270.33	0.517
271	0.483
271.67	0.449
272.33	0.412
273	0.372
273.67	0.346
274.33	0.323
275	0.3
275.67	0.283
276.33	0.264
277	0.249
277.67	0.239
278.33	0.224
279	0.214
279.67	0.207
280.33	0.199
281	0.193
281.67	0.188
282.33	0.184
283	0.18
283.67	0.178
284.33	0.174
285	0.172
285.67	0.169
286.33	0.165
287	0.161
287.67	0.159
288.33	0.157
289	0.155
289.67	0.155
