Uv/Vis Spectrum: Dibenzo[c,g]phenanthrene
Formula: C22H14
CAS: 188-52-3
Melting point: 178
Instrument: n.i.g.
Origin: INSTITUTE OF ENERGY PROBLEMS OF CHEMICAL PHYSICS, RAS
Wavelength (nm)	Logarithm epsilon
200.47	2.098
200.93	2.112
201.4	2.121
201.86	2.135
202.33	2.149
202.79	2.158
203.26	2.172
203.72	2.191
204.19	2.274
204.65	2.33
205.05	2.346
205.5	2.351
206.05	2.353
206.46	2.349
206.98	2.344
207.44	2.341
207.91	2.34
208.41	2.341
208.92	2.342
209.3	2.344
209.77	2.346
210.23	2.349
211.03	2.358
211.73	2.373
212.6	2.392
213.02	2.405
213.41	2.414
213.98	2.424
214.42	2.433
214.84	2.44
215.31	2.448
215.78	2.458
216.28	2.47
216.79	2.479
217.21	2.488
217.67	2.502
218.37	2.525
218.75	2.538
219.13	2.548
219.51	2.559
220.13	2.576
220.67	2.592
220.93	2.6
221.7	2.633
221.98	2.646
222.33	2.665
222.97	2.719
223.26	2.749
223.66	2.774
224.18	2.789
224.67	2.793
225.12	2.795
225.59	2.794
225.99	2.791
226.4	2.784
226.98	2.763
227.44	2.74
227.91	2.702
228.17	2.688
228.53	2.67
228.94	2.653
229.54	2.638
230.03	2.629
230.7	2.619
231.25	2.612
231.76	2.607
232.39	2.605
233.77	2.605
234.42	2.609
234.88	2.614
236.28	2.633
236.73	2.638
237.22	2.647
237.7	2.659
238.15	2.669
238.48	2.681
239.14	2.709
239.73	2.734
240	2.744
240.47	2.763
240.93	2.777
241.4	2.789
242.33	2.809
243.26	2.832
243.62	2.838
244.1	2.845
244.65	2.851
245.14	2.854
245.57	2.858
246.47	2.866
247.02	2.875
247.52	2.883
247.91	2.888
248.37	2.893
248.84	2.898
249.3	2.901
249.77	2.907
250.23	2.912
250.7	2.921
251.16	2.953
251.63	3.107
252.09	3.144
252.77	3.212
253.95	3.307
254.88	3.353
255.81	3.4
256.74	3.442
257.67	3.512
258.6	3.605
259.73	3.705
260.56	3.765
261.35	3.802
262.41	3.836
263.26	3.865
264.19	3.907
265.12	3.944
266.37	4.005
266.98	4.042
268.17	4.113
268.84	4.158
269.77	4.2
270.43	4.226
271.63	4.242
272.56	4.242
273.61	4.228
275.35	4.195
276.98	4.179
279.07	4.181
280	4.191
280.93	4.223
282.14	4.299
282.79	4.344
283.71	4.399
284.65	4.414
285.58	4.419
286.51	4.456
287.44	4.498
288.37	4.519
289.3	4.535
290.23	4.535
291.14	4.531
292.09	4.512
293.02	4.479
293.95	4.47
294.88	4.47
295.81	4.479
298.6	4.516
300.47	4.535
301.4	4.544
302.29	4.553
303.26	4.553
304.32	4.548
305.12	4.544
306.05	4.535
307	4.527
307.91	4.516
308.84	4.507
309.81	4.491
310.78	4.472
311.63	4.451
312.49	4.424
313.49	4.395
315.35	4.367
316.22	4.355
317.21	4.349
318.14	4.344
319.17	4.345
320	4.358
320.93	4.372
322.79	4.414
323.88	4.444
324.65	4.474
326.55	4.553
327.8	4.622
329.18	4.674
330.23	4.698
332.09	4.716
334.39	4.722
335.81	4.716
336.74	4.707
337.67	4.698
339.53	4.674
341.4	4.66
342.33	4.656
343.34	4.651
345.27	4.645
346.98	4.633
347.99	4.626
348.84	4.614
349.88	4.6
350.99	4.587
352.65	4.57
354.42	4.563
355.35	4.563
356.28	4.563
357.21	4.567
359.07	4.591
360.67	4.628
361.86	4.684
362.93	4.749
363.58	4.793
364.65	4.916
