Uv/Vis Spectrum: 2-methoxyquinoxaline-4-oxide
Formula: C9H8N2O2
CAS: 18916-46-6
Instrument: Hitachi EPS-3
Origin: INSTITUTE OF ENERGY PROBLEMS OF CHEMICAL PHYSICS, RAS
Wavelength (nm)	Logarithm epsilon
212.754	4.113
213.754	4.12
214.754	4.122
215.754	4.119
216.754	4.112
217.754	4.102
218.754	4.09
219.754	4.076
220.754	4.062
221.754	4.047
222.754	4.032
223.754	4.018
224.754	4.005
225.754	3.994
226.754	3.983
227.754	3.975
228.754	3.967
229.754	3.962
230.754	3.958
231.754	3.955
232.754	3.954
233.754	3.954
234.754	3.956
235.754	3.959
236.754	3.963
237.754	3.97
238.754	3.979
239.754	3.99
240.754	4.006
241.754	4.026
242.718	4.045
243.718	4.09
244.718	4.124
245.718	4.153
246.718	4.184
247.718	4.218
248.718	4.255
249.718	4.294
250.718	4.333
251.718	4.367
252.718	4.393
253.718	4.409
254.718	4.412
255.718	4.405
256.718	4.388
256.986	4.367
257.986	4.292
258.986	4.184
259.986	4.059
260.986	3.931
261.986	3.816
262.986	3.723
263.986	3.656
265.547	3.589
266.547	3.544
267.547	3.513
268.547	3.496
269.547	3.489
270.547	3.492
271.547	3.502
272.547	3.519
273.547	3.54
274.547	3.564
275.547	3.591
276.547	3.618
277.547	3.646
278.547	3.673
279.547	3.698
280.547	3.723
280.672	3.732
281.672	3.747
282.672	3.761
283.672	3.772
284.672	3.783
285.672	3.792
286.672	3.8
287.672	3.807
288.672	3.814
289.672	3.819
290.672	3.825
291.672	3.83
292.672	3.834
293.672	3.838
294.672	3.842
295.672	3.845
296.672	3.848
297.672	3.85
298.672	3.852
299.672	3.853
300.672	3.854
301.672	3.854
302.672	3.853
303.672	3.851
304.672	3.848
305.672	3.845
306.672	3.842
307.672	3.838
308.672	3.835
309.672	3.832
309.779	3.831
310.779	3.832
311.779	3.834
312.779	3.837
313.779	3.841
314.779	3.846
315.779	3.851
316.779	3.857
317.779	3.863
318.779	3.869
319.779	3.875
320.779	3.881
321.779	3.888
322.779	3.894
323.779	3.9
324.779	3.906
325.779	3.912
326.779	3.917
327.779	3.923
328.779	3.928
329.779	3.932
330.779	3.937
331.779	3.941
332.779	3.945
333.779	3.948
334.779	3.951
335.779	3.954
336.779	3.956
337.779	3.957
338.316	3.957
339.316	3.959
340.316	3.958
341.316	3.956
342.316	3.953
343.316	3.948
344.316	3.943
345.316	3.936
346.316	3.929
347.316	3.921
348.316	3.913
349.316	3.905
350.316	3.896
351.316	3.887
352.316	3.879
353.316	3.87
354.316	3.862
355.316	3.854
356.316	3.846
357.316	3.839
358.316	3.832
359.316	3.825
360.316	3.819
361.316	3.813
362.316	3.808
363.316	3.802
364.316	3.796
365.316	3.79
366.316	3.784
367.316	3.777
367.904	3.774
368.904	3.765
369.904	3.754
370.904	3.743
371.904	3.73
372.904	3.716
373.904	3.702
374.904	3.686
375.904	3.669
376.904	3.652
377.904	3.634
378.904	3.615
379.904	3.595
380.904	3.574
381.904	3.553
382.904	3.53
383.904	3.507
384.904	3.483
385.904	3.457
386.904	3.431
387.904	3.403
388.904	3.373
389.904	3.342
389.968	3.34
390.968	3.305
391.968	3.272
392.968	3.247
393.968	3.234
394.534	3.235
