Uv/Vis Spectrum: N-(phenylmethylene)-4H-1,2,4-triazol-4-amine
Formula: C9H8N4
CAS: 18998-48-6
Melting point: 180
Instrument: unknown
Origin: INSTITUTE OF ENERGY PROBLEMS OF CHEMICAL PHYSICS, RAS
Wavelength (nm)	Logarithm epsilon
221.423	3.976
221.494	3.974
222.48	3.877
223.474	3.787
224.477	3.709
225.49	3.645
226.511	3.598
227.542	3.564
228.582	3.539
229.632	3.517
230.692	3.499
231.761	3.486
232.84	3.487
233.996	3.503
234.998	3.536
236.108	3.568
237.228	3.607
238.359	3.651
239.501	3.697
240.654	3.743
241.818	3.787
242.993	3.828
244.18	3.866
245.378	3.901
246.588	3.934
247.81	3.968
249.045	4.003
250.291	4.043
251.382	4.069
252.652	4.099
253.935	4.126
255.231	4.151
256.541	4.174
257.864	4.195
259.201	4.214
260.551	4.232
261.916	4.249
263.295	4.264
264.689	4.278
266.098	4.292
267.522	4.304
268.961	4.315
270.415	4.325
271.845	4.335
273.331	4.342
274.833	4.348
276.352	4.351
277.888	4.351
279.441	4.349
281.012	4.345
282.6	4.338
284.206	4.328
285.831	4.314
287.474	4.296
289.137	4.273
290.818	4.242
292.52	4.2
294.183	4.15
295.924	4.088
297.686	4.016
299.469	3.932
301.273	3.835
303.1	3.723
304.948	3.596
306.819	3.454
308.714	3.296
310.632	3.125
312.574	2.947
314.54	2.765
316.531	2.569
