Uv/Vis Spectrum: 3-Buten-2-one, 4-phenyl-, (E)-
Formula: C10H10O
CAS: 1896-62-4
Melting point: 42
Instrument: Beckman Model DU
Origin: INSTITUTE OF ENERGY PROBLEMS OF CHEMICAL PHYSICS, RAS
Wavelength (nm)	Logarithm epsilon
210.06	3.995
210.23	3.998
210.4	3.998
210.57	3.998
210.74	4.002
210.91	4.002
211.08	4.002
211.25	4.005
211.42	4.005
211.59	4.005
211.76	4.009
212.79	4.009
214.15	4.019
215.51	4.032
216.88	4.036
218.24	4.046
219.61	4.046
220.97	4.049
222.33	4.049
223.7	4.046
225.06	4.029
226.43	3.961
227.79	3.795
229.15	3.591
230.52	3.387
231.88	3.238
233.25	3.207
234.61	3.204
235.97	3.217
237.34	3.255
238.7	3.302
240.07	3.343
241.43	3.401
242.79	3.459
244.16	3.516
245.52	3.574
246.89	3.628
248.25	3.679
249.61	3.73
250.98	3.778
252.34	3.825
253.7	3.873
255.07	3.924
256.43	3.961
257.8	3.995
259.16	4.032
260.52	4.07
261.89	4.104
263.25	4.134
264.62	4.165
265.98	4.195
267.34	4.226
268.71	4.246
270.07	4.267
271.44	4.284
272.8	4.297
274.16	4.311
275.53	4.324
276.89	4.331
278.26	4.341
279.62	4.341
280.98	4.338
282.35	4.328
283.71	4.318
285.08	4.297
286.44	4.284
287.8	4.26
289.17	4.243
290.53	4.212
291.9	4.185
293.26	4.151
294.62	4.11
295.99	4.073
297.35	4.032
298.71	3.988
300.08	3.937
301.44	3.886
302.81	3.822
304.17	3.757
305.53	3.693
306.9	3.628
308.26	3.557
309.63	3.472
310.99	3.367
312.35	3.231
313.72	3.116
315.08	3.004
316.45	2.881
317.81	2.739
319.17	2.549
320.54	2.44
321.9	2.362
323.27	2.304
324.63	2.267
325.99	2.233
327.36	2.212
328.72	2.199
330.09	2.192
331.45	2.182
332.81	2.178
334.18	2.168
335.54	2.165
336.9	2.161
338.27	2.158
339.63	2.148
341	2.145
342.36	2.141
343.72	2.131
345.09	2.128
346.45	2.114
347.82	2.107
349.18	2.094
350.54	2.08
351.91	2.073
353.27	2.056
354.64	2.039
356	2.026
357.36	2.009
358.73	1.992
360.09	1.985
361.46	1.961
362.82	1.941
364.18	1.92
365.55	1.9
366.91	1.873
368.28	1.853
369.64	1.825
371	1.802
372.37	1.771
373.73	1.74
375.1	1.713
376.46	1.683
377.82	1.652
379.19	1.618
380.55	1.584
381.91	1.55
383.28	1.51
384.64	1.476
386.01	1.442
387.37	1.401
388.73	1.364
390.1	1.323
391.46	1.285
392.83	1.238
394.19	1.19
395.55	1.156
396.92	1.133
398.28	1.099
