Uv/Vis Spectrum: Benzo[ghi]perylene
Formula: C22H12
CAS: 191-24-2
Melting point: 273
Instrument: n.i.g.
Origin: INSTITUTE OF ENERGY PROBLEMS OF CHEMICAL PHYSICS, RAS
Wavelength (nm)	Logarithm epsilon
213.77	4.669
214.18	4.668
214.61	4.665
215.35	4.659
216.28	4.652
216.7	4.648
217.11	4.644
218.03	4.637
218.84	4.63
219.77	4.619
221.29	4.593
222.54	4.554
223.79	4.516
225.04	4.47
225.88	4.427
226.71	4.389
227.55	4.347
228.15	4.307
228.62	4.278
228.97	4.253
229.43	4.218
230.05	4.168
230.71	4.128
231.41	4.08
232.14	4.033
232.44	4.019
232.97	3.999
233.48	3.987
233.94	3.982
234.51	3.98
235.06	3.982
235.48	3.986
235.89	3.99
236.31	3.994
236.75	3.997
237.15	3.999
237.56	3.999
237.98	3.999
238.44	3.999
238.82	4.003
240.71	4.036
242.16	4.062
246.75	4.13
248.83	4.164
250.38	4.183
251.34	4.194
251.75	4.198
252.17	4.202
254.68	4.223
256.76	4.245
259.68	4.27
265.53	4.317
268.48	4.337
275.13	4.385
276.91	4.396
278.47	4.402
278.88	4.402
279.3	4.402
281.39	4.393
281.81	4.389
282.4	4.385
283.13	4.383
283.94	4.391
284.53	4.406
284.97	4.42
285.55	4.437
285.98	4.453
286.51	4.478
286.94	4.497
287.31	4.512
287.68	4.53
288.07	4.542
288.56	4.559
288.92	4.57
289.32	4.584
289.73	4.599
290.13	4.616
290.54	4.634
290.99	4.644
291.49	4.641
291.93	4.634
292.29	4.624
292.59	4.591
292.95	4.544
293.25	4.502
293.91	4.461
294.64	4.456
295.3	4.46
295.88	4.468
296.25	4.478
296.76	4.51
297.2	4.537
297.5	4.555
297.72	4.57
298.01	4.591
298.45	4.621
299.03	4.656
299.34	4.682
299.75	4.724
300.13	4.739
300.59	4.75
300.94	4.759
301.53	4.754
302.26	4.72
302.67	4.618
303.09	4.525
303.21	4.499
303.5	4.437
303.94	4.337
304.46	4.24
305.18	4.113
305.6	4.05
306.01	4.02
306.36	3.98
306.8	3.933
307.53	3.887
308.05	3.87
308.34	3.857
308.85	3.841
309.81	3.817
310.76	3.794
311.64	3.773
313.11	3.723
314.64	3.666
315.37	3.636
316.45	3.595
316.99	3.579
317.65	3.564
318.38	3.551
319.55	3.547
320.14	3.551
320.65	3.553
321.04	3.557
321.6	3.562
322.26	3.57
322.71	3.579
323.21	3.591
323.65	3.607
324.02	3.626
324.68	3.656
324.8	3.668
325.21	3.693
325.49	3.712
325.78	3.738
326.37	3.773
326.95	3.794
327.83	3.804
328.27	3.794
328.55	3.778
328.93	3.737
329.39	3.68
329.66	3.656
330.22	3.621
330.54	3.599
331.06	3.576
331.42	3.565
331.89	3.557
332.37	3.55
332.96	3.542
333.55	3.536
334.21	3.537
334.65	3.547
335.3	3.569
335.82	3.59
336.18	3.605
336.55	3.619
336.9	3.634
337.36	3.655
337.73	3.676
338.24	3.699
338.57	3.719
339.92	3.79
340.66	3.833
341.02	3.852
341.49	3.871
341.83	3.889
342.19	3.912
342.74	3.943
343.07	3.957
343.36	3.97
343.73	3.978
344.41	3.982
345.05	3.975
345.66	3.943
345.86	3.932
346.08	3.918
346.37	3.906
346.74	3.892
347.32	3.876
348.17	3.863
348.59	3.859
349.08	3.851
350.25	3.842
351.06	3.841
351.72	3.845
352.23	3.851
352.76	3.863
353.18	3.871
353.55	3.881
354.06	3.899
354.5	3.922
354.85	3.943
355.24	3.961
355.67	3.988
356.11	4.011
356.52	4.033
356.93	4.066
357.35	4.105
357.8	4.131
358.19	4.156
359.02	4.207
359.41	4.225
359.85	4.25
360.27	4.274
360.58	4.298
361.11	4.321
361.39	4.337
361.76	4.35
362.36	4.359
362.78	4.359
363.3	4.353
363.81	4.342
364.1	4.328
364.86	4.296
365.28	4.245
365.7	4.202
366.12	4.16
366.53	4.105
366.95	4.062
367.37	4.033
367.76	4.013
368.2	3.986
368.42	3.976
368.79	3.966
369.23	3.954
369.82	3.938
370.33	3.93
371.12	3.922
371.79	3.923
372.67	3.925
373.63	3.926
374.05	3.935
374.58	3.951
374.88	3.965
375.39	3.992
375.72	4.007
376.19	4.046
376.63	4.074
376.85	4.102
377.39	4.139
377.8	4.185
378.24	4.212
378.61	4.239
379.05	4.266
379.34	4.279
379.71	4.298
380.07	4.315
380.59	4.336
380.95	4.355
381.39	4.379
381.83	4.399
382.27	4.413
382.71	4.425
383.23	4.44
383.65	4.448
384.9	4.461
385.32	4.457
385.73	4.431
386.15	4.321
386.57	4.245
386.98	4.16
387.4	4.033
387.69	3.966
388.21	3.888
388.65	3.82
389.01	3.766
389.49	3.71
389.91	3.668
390.32	3.625
390.74	3.591
391.16	3.553
391.58	3.523
391.95	3.502
392.35	3.483
392.74	3.467
393.21	3.451
393.62	3.423
394.08	3.392
394.39	3.371
394.91	3.336
395.38	3.311
395.75	3.281
396.22	3.212
396.58	3.074
396.74	2.97
396.87	2.893
397.12	2.817
397.42	2.755
397.84	2.653
398.25	2.53
398.67	2.412
399.16	2.309
399.51	2.289
400.04	2.292
400.62	2.322
400.76	2.348
401.18	2.458
401.59	2.573
402.01	2.641
402.36	2.669
402.85	2.69
403.26	2.704
403.68	2.704
404.2	2.694
404.59	2.664
404.93	2.636
405.35	2.556
405.77	2.475
406.18	2.395
406.6	2.31
407.02	2.242
407.44	2.17
