Uv/Vis Spectrum: Benzo[e]pyrene
Formula: C20H12
CAS: 192-97-2
Melting point: 178
Instrument: Ziess PMQ II
Origin: INSTITUTE OF ENERGY PROBLEMS OF CHEMICAL PHYSICS, RAS
Wavelength (nm)	Logarithm epsilon
182.61	4.439
183.77	4.418
185.02	4.405
186.36	4.401
187.57	4.414
188.72	4.435
189.81	4.458
190.67	4.486
191.54	4.518
192.34	4.55
193.22	4.582
194.11	4.612
195.1	4.64
196.09	4.667
197.09	4.695
197.94	4.727
198.88	4.757
199.99	4.782
201.13	4.808
202.54	4.829
203.97	4.846
205.51	4.838
206.43	4.804
207.07	4.77
207.73	4.733
208.57	4.699
209.52	4.665
210.76	4.64
212.11	4.618
213.78	4.614
215.37	4.629
217.09	4.625
218.53	4.603
219.57	4.571
221.15	4.574
222.21	4.606
223.93	4.616
225.02	4.586
225.79	4.552
226.35	4.516
226.9	4.48
227.57	4.441
228.25	4.405
229.83	4.386
231.91	4.394
234.02	4.388
235.46	4.414
236.66	4.443
237.76	4.475
238.74	4.467
239.73	4.433
240.48	4.394
241.36	4.36
242.5	4.326
244.29	4.301
246.64	4.288
249.03	4.286
251.47	4.292
253.26	4.318
254.94	4.343
256.5	4.375
258.79	4.384
260.55	4.358
262.92	4.356
264.42	4.386
264.95	4.4
265.82	4.421
266.82	4.443
267.48	4.458
268.1	4.465
268.74	4.466
269.31	4.46
269.98	4.446
270.62	4.422
271.25	4.356
271.89	4.326
272.53	4.307
273.18	4.298
273.82	4.298
274.47	4.322
275.13	4.354
275.78	4.414
276.44	4.447
277.11	4.488
277.77	4.537
278.44	4.582
279.11	4.608
279.57	4.618
280.13	4.608
280.9	4.56
281.5	4.512
282.18	4.452
282.91	4.413
283.52	4.386
284.36	4.36
284.62	4.36
285.32	4.377
286.04	4.4
286.67	4.42
287.45	4.446
288.1	4.474
288.52	4.507
288.78	4.543
289.07	4.582
289.5	4.63
289.89	4.674
290.34	4.71
290.7	4.738
291.07	4.748
291.44	4.748
291.8	4.736
292.12	4.709
292.48	4.663
292.75	4.626
293	4.582
293.29	4.534
293.59	4.492
294.2	4.431
294.78	4.35
295.54	4.249
296.15	4.171
297.06	4.1
297.6	4.074
298.29	4.059
299.02	4.048
300.07	4.043
300.93	4.045
301.71	4.053
302.5	4.077
303.3	4.089
304.09	4.107
304.9	4.119
305.62	4.124
306.58	4.129
307.33	4.128
308.15	4.121
308.97	4.107
309.8	4.096
310.63	4.096
311.5	4.101
312.31	4.109
313.16	4.119
314.01	4.143
314.87	4.164
315.54	4.197
316.16	4.254
316.77	4.312
317.9	4.345
318.78	4.367
319.66	4.375
320.55	4.33
321.33	4.275
322.34	4.22
323.04	4.175
324.14	4.126
325.06	4.104
325.97	4.098
326.9	4.104
328.05	4.147
329.11	4.204
330.01	4.246
330.64	4.252
331.11	4.254
331.63	4.263
332.1	4.344
332.56	4.441
333.03	4.507
333.4	4.55
333.87	4.578
334.46	4.59
335.08	4.592
335.68	4.567
336.15	4.469
336.64	4.36
337.12	4.252
337.72	4.103
338.52	3.947
339.19	3.798
340.16	3.58
340.98	3.401
341.84	3.178
342.59	3.004
343.22	2.879
343.85	2.752
344.44	2.651
344.98	2.581
345.73	2.563
346.24	2.563
346.76	2.568
347.29	2.58
347.87	2.616
348.31	2.652
348.86	2.68
349.39	2.695
349.92	2.706
350.45	2.71
350.98	2.703
351.51	2.682
352.05	2.61
352.32	2.558
352.64	2.525
353.22	2.478
353.94	2.437
354.48	2.399
355.02	2.392
355.57	2.392
356.12	2.418
356.67	2.456
357.22	2.467
357.77	2.469
358.33	2.465
358.88	2.456
359.44	2.458
360	2.473
360.56	2.482
361.13	2.48
361.69	2.477
362.14	2.439
362.43	2.374
362.82	2.288
363.16	2.21
363.47	2.141
363.88	2.085
364.51	2.081
365.12	2.115
365.91	2.219
366.83	2.404
367.45	2.544
368.03	2.648
368.61	2.711
369.2	2.695
369.45	2.612
369.83	2.475
370.22	2.349
370.75	2.227
371.23	2.111
371.71	2.025
372.2	1.936
372.68	1.863
373.68	1.84
374.29	1.836
374.9	1.816
375.5	1.774
376.11	1.729
376.73	1.691
377.32	1.638
377.96	1.595
378.58	1.556
379.17	1.514
379.83	1.471
380.45	1.43
381.08	1.379
