Uv/Vis Spectrum: 9-Octadecenoic acid, methyl ester, (E)-
Formula: C19H36O2
CAS: 1937-62-8
Instrument: Beckman DK 2 "Extended UV Range"
Origin: INSTITUTE OF ENERGY PROBLEMS OF CHEMICAL PHYSICS, RAS
Wavelength (nm)	Logarithm epsilon
183.08	4.045
183.16	4.045
183.23	4.048
183.3	4.048
183.37	4.048
183.44	4.05
183.51	4.05
183.58	4.05
183.65	4.05
183.72	4.052
183.8	4.052
183.87	4.052
183.94	4.054
184.01	4.054
184.08	4.054
184.15	4.056
184.23	4.056
184.3	4.056
184.37	4.058
184.44	4.058
184.51	4.058
184.58	4.058
184.66	4.06
184.73	4.06
184.8	4.06
184.87	4.062
184.95	4.062
185.02	4.062
185.09	4.065
185.16	4.065
185.39	4.066
185.64	4.067
185.82	4.068
186.04	4.069
186.26	4.069
186.48	4.07
186.7	4.07
186.92	4.071
187.14	4.071
187.36	4.071
187.59	4.071
187.82	4.071
188.05	4.07
188.26	4.069
188.48	4.067
188.71	4.065
188.93	4.062
189.17	4.06
189.39	4.057
189.62	4.054
189.84	4.051
190.07	4.048
190.31	4.044
190.55	4.04
190.76	4.037
190.99	4.033
191.22	4.028
191.46	4.024
191.7	4.019
191.92	4.013
192.17	4.008
192.42	4.002
192.63	3.996
192.87	3.989
193.1	3.983
193.35	3.976
193.57	3.971
193.81	3.962
194.05	3.954
194.29	3.945
194.51	3.937
194.77	3.927
195.01	3.915
195.25	3.904
195.49	3.894
195.73	3.883
195.98	3.872
196.22	3.862
196.47	3.849
196.71	3.838
196.97	3.823
197.2	3.808
197.45	3.796
197.7	3.778
197.95	3.766
198.19	3.749
198.43	3.735
198.69	3.719
198.94	3.704
199.2	3.684
199.45	3.665
199.7	3.648
199.95	3.629
200.21	3.612
200.46	3.595
200.72	3.576
200.97	3.556
201.23	3.537
201.49	3.512
201.74	3.486
202.03	3.459
202.26	3.437
202.52	3.413
202.78	3.388
203.04	3.362
203.3	3.33
203.57	3.3
203.83	3.268
204.09	3.238
204.36	3.21
204.62	3.183
204.89	3.148
205.16	3.116
205.42	3.069
205.69	3.031
205.96	2.99
206.19	2.955
206.5	2.907
206.77	2.867
207.04	2.83
207.31	2.783
207.59	2.743
207.86	2.698
208.13	2.629
208.41	2.578
208.69	2.523
208.96	2.456
209.24	2.403
209.52	2.328
209.8	2.251
210.07	2.176
210.51	2.063
210.89	1.966
211.15	1.899
211.4	1.826
211.6	1.764
211.81	1.693
212.05	1.574
212.24	1.478
212.34	1.422
212.44	1.359
212.53	1.303
212.62	1.248
212.79	1.175
212.91	1.137
