Uv/Vis Spectrum: 1,1'-Biphenyl, 2-(1-methylethyl)-
Formula: C15H16
CAS: 19486-60-3
Instrument: unknown
Origin: INSTITUTE OF ENERGY PROBLEMS OF CHEMICAL PHYSICS, RAS
Wavelength (nm)	Logarithm epsilon
221.58	4.019
221.84	4.011
222.09	4.005
222.35	3.999
222.65	3.992
222.99	3.987
223.29	3.982
223.63	3.977
224.01	3.974
224.4	3.972
224.78	3.971
225.17	3.971
225.55	3.971
225.93	3.971
226.32	3.972
226.7	3.974
227.09	3.975
227.47	3.977
227.81	3.981
228.2	3.982
228.54	3.985
228.92	3.987
229.27	3.989
229.68	3.991
230.04	3.992
230.39	3.994
230.85	3.994
231.23	3.994
231.61	3.994
232	3.994
232.38	3.994
232.77	3.993
233.14	3.992
233.56	3.991
233.97	3.988
234.33	3.986
234.74	3.983
235.1	3.98
235.46	3.977
235.8	3.973
236.16	3.969
236.48	3.966
236.82	3.962
237.16	3.957
237.49	3.953
237.85	3.948
238.19	3.943
238.53	3.938
238.87	3.933
239.21	3.928
239.51	3.923
239.85	3.917
240.15	3.912
240.45	3.906
240.75	3.9
241.05	3.895
241.35	3.889
241.65	3.883
241.95	3.877
242.25	3.871
242.5	3.863
242.8	3.857
243.1	3.852
243.36	3.845
243.61	3.838
243.91	3.832
244.17	3.824
244.42	3.818
244.68	3.811
244.94	3.804
245.19	3.798
245.45	3.792
245.7	3.784
245.96	3.777
246.17	3.768
246.43	3.761
246.69	3.754
246.9	3.746
247.16	3.739
247.37	3.731
247.63	3.724
247.84	3.717
248.05	3.709
248.27	3.702
248.52	3.694
248.74	3.686
248.95	3.678
249.16	3.669
249.38	3.662
249.59	3.654
249.8	3.646
250.02	3.637
250.23	3.63
250.44	3.622
250.66	3.613
250.87	3.605
251.05	3.596
251.21	3.589
251.43	3.58
251.64	3.572
251.85	3.564
252.02	3.556
252.24	3.549
252.43	3.541
252.62	3.533
252.83	3.525
253.05	3.517
253.26	3.51
253.43	3.501
253.6	3.493
253.82	3.484
253.99	3.476
254.2	3.467
254.37	3.459
254.58	3.451
254.76	3.443
254.97	3.435
255.14	3.426
255.31	3.418
255.52	3.409
255.69	3.401
255.89	3.392
256.08	3.384
256.25	3.375
256.46	3.367
256.68	3.359
256.85	3.35
257.06	3.342
257.25	3.334
257.45	3.325
257.62	3.316
257.79	3.308
257.96	3.299
258.14	3.292
258.34	3.283
258.51	3.274
258.68	3.266
258.85	3.257
259.03	3.249
259.22	3.241
259.41	3.232
259.59	3.225
259.77	3.216
259.96	3.206
260.14	3.198
260.31	3.19
260.48	3.181
260.65	3.173
260.82	3.164
261.01	3.155
261.16	3.147
261.33	3.139
261.5	3.13
261.67	3.121
261.84	3.112
262.06	3.104
262.23	3.096
262.4	3.087
262.57	3.079
262.74	3.07
262.87	3.062
263.08	3.053
263.25	3.045
263.42	3.036
263.59	3.028
263.81	3.02
263.98	3.011
264.19	3.003
264.36	2.994
264.58	2.986
264.79	2.977
265	2.969
265.17	2.96
265.39	2.953
265.56	2.945
265.77	2.936
265.98	2.929
266.16	2.92
266.37	2.913
266.58	2.904
266.8	2.897
267.01	2.89
267.27	2.882
267.48	2.874
267.69	2.866
267.91	2.859
268.12	2.851
268.38	2.843
268.59	2.835
268.8	2.827
269.06	2.82
269.32	2.813
269.57	2.805
269.78	2.798
270.04	2.79
270.3	2.783
270.55	2.777
270.81	2.769
271.07	2.763
271.28	2.756
271.54	2.748
271.83	2.742
272.09	2.735
272.35	2.728
272.65	2.722
272.9	2.715
273.16	2.709
273.41	2.703
273.71	2.696
