Uv/Vis Spectrum: 3,4:5,6-Dibenzocarbazole
Formula: C20H13N
CAS: 194-59-2
Melting point: 150-152
Instrument: Zeiss M40
Origin: INSTITUTE OF ENERGY PROBLEMS OF CHEMICAL PHYSICS, RAS
Wavelength (nm)	Logarithm epsilon
210.17	4.356
210.26	4.356
210.36	4.354
210.45	4.352
210.55	4.35
210.64	4.35
210.74	4.348
210.93	4.342
211.31	4.331
211.69	4.318
212.08	4.301
212.46	4.288
212.85	4.273
213.24	4.258
213.63	4.248
214.02	4.237
214.42	4.224
214.81	4.214
215.21	4.203
215.61	4.186
216.01	4.175
216.41	4.167
216.81	4.158
217.21	4.15
217.62	4.137
218.03	4.128
218.43	4.12
218.84	4.109
219.26	4.101
219.67	4.092
220.08	4.086
220.5	4.075
220.92	4.067
221.34	4.058
221.76	4.05
222.18	4.039
222.6	4.028
223.03	4.02
223.46	4.009
223.89	3.994
224.32	3.984
224.75	3.969
225.18	3.954
225.62	3.941
226.06	3.928
226.5	3.909
226.94	3.898
227.38	3.879
227.82	3.858
228.27	3.834
228.72	3.815
229.17	3.794
229.62	3.773
230.07	3.747
230.53	3.721
230.98	3.698
231.44	3.668
231.9	3.636
232.36	3.606
232.83	3.577
233.29	3.534
233.76	3.5
234.23	3.468
234.7	3.43
235.18	3.4
235.65	3.374
236.13	3.349
236.61	3.319
237.09	3.295
237.57	3.276
238.06	3.257
238.54	3.242
239.03	3.219
239.52	3.202
240.02	3.184
240.51	3.172
241.01	3.159
241.51	3.146
242.01	3.133
242.51	3.121
243.02	3.11
243.53	3.099
244.04	3.086
244.55	3.076
245.06	3.065
245.58	3.048
246.1	3.035
246.62	3.025
247.14	3.005
247.66	2.997
248.19	2.984
248.72	2.969
249.25	2.956
249.79	2.944
250.32	2.931
250.86	2.914
251.4	2.897
251.94	2.884
252.49	2.869
253.04	2.852
253.59	2.839
254.14	2.827
254.7	2.809
255.25	2.79
255.81	2.777
256.38	2.76
256.94	2.748
257.51	2.731
258.08	2.718
258.65	2.705
259.23	2.684
259.8	2.673
260.38	2.656
260.97	2.643
261.55	2.633
262.14	2.622
262.73	2.611
263.32	2.601
263.92	2.594
264.52	2.594
265.12	2.596
265.72	2.598
266.33	2.607
266.94	2.609
267.55	2.622
268.17	2.628
268.79	2.641
269.41	2.65
270.03	2.656
270.66	2.662
271.29	2.669
271.92	2.671
272.56	2.673
273.2	2.673
273.84	2.669
274.48	2.665
275.13	2.667
275.78	2.673
276.43	2.679
277.09	2.682
277.75	2.682
278.41	2.682
279.08	2.677
279.75	2.671
280.42	2.665
281.1	2.658
281.78	2.65
282.46	2.633
283.15	2.618
283.84	2.603
284.53	2.586
285.23	2.558
285.92	2.535
286.63	2.507
287.33	2.473
288.04	2.43
288.76	2.394
289.47	2.345
290.19	2.302
290.92	2.245
291.65	2.189
292.38	2.125
293.11	2.064
293.85	1.993
294.59	1.921
295.34	1.868
296.09	1.797
296.84	1.74
297.6	1.669
298.36	1.593
299.13	1.535
299.9	1.461
300.67	1.384
301.45	1.322
302.23	1.25
303.01	1.175
