Uv/Vis Spectrum: Cyclohexanol, 1-ethyl-
Formula: C8H16O
CAS: 1940-18-7
Melting point: 34.5
Boiling point: 166
Instrument: n.i.g.
Origin: INSTITUTE OF ENERGY PROBLEMS OF CHEMICAL PHYSICS, RAS
Wavelength (nm)	Logarithm epsilon
228.269	3.64121
229.658	3.608
230.358	3.5702
230.834	3.52969
235.95	3.38542
237.206	3.32559
238.074	3.2955
238.206	3.2834
239.865	3.24101
239.952	3.23131
240.066	3.22132
240.194	3.2112
240.194	3.2112
240.797	3.20933
241.415	3.20733
241.831	3.12943
242.059	3.20504
242.237	3.10644
243.562	3.06986
246.943	2.98833
250.696	2.95252
251.889	2.89832
254.25	2.85794
257.751	2.82483
262.365	2.79243
269.579	2.77668
269.879	2.77588
270.18	2.77481
270.481	2.77359
271.741	2.77373
272.46	2.77505
273.178	2.77623
273.897	2.77713
277.942	2.81377
283.109	2.83374
286.081	2.84855
289.406	2.87087
293.094	2.90429
294.345	2.91329
295.596	2.92216
296.848	2.93073
299.876	2.96408
302.62	2.99658
304.386	3.02064
306.687	3.0569
316.798	3.21296
318.557	3.23262
321.328	3.26721
325.106	3.30911
328.841	3.35587
330.193	3.35649
330.983	3.35986
331.888	3.3689
336.938	3.35673
339.486	3.34877
341.594	3.33878
345.073	3.31821
355.755	3.18723
357.85	3.14724
359.972	3.10698
362.108	3.06658
369.092	2.91234
370.24	2.8851
371.764	2.85508
373.568	2.81055
379.33	2.6168
380.281	2.5807
381.26	2.54459
382.252	2.50849
393.345	2.32229
395.825	2.30284
398.319	2.28325
400.84	2.26338
414.009	2.16633
414.434	2.1611
414.712	2.12003
414.859	2.15559
414.889	2.12574
415.079	2.13131
415.284	2.14995
415.297	2.13661
415.297	2.13661
416.959	2.13347
418.507	2.12523
421.266	2.10485
437.264	1.99729
442.423	1.96467
445.022	1.94617
447.29	1.92594
461.034	1.85499
464.899	1.82809
468.764	1.80118
