Uv/Vis Spectrum: 9-Bromofluorene
Formula: C13H9Br
CAS: 1940-57-4
Instrument: n.i.g.
Origin: INSTITUTE OF ENERGY PROBLEMS OF CHEMICAL PHYSICS, RAS
Wavelength (nm)	Logarithm epsilon
215.945	4.51808
215.945	4.51808
215.969	4.51905
215.969	4.51905
215.993	4.51995
215.993	4.51995
216.017	4.52082
218.447	4.49136
218.512	4.49053
218.577	4.48969
218.642	4.48886
219.373	4.48633
219.374	4.48526
219.376	4.48412
219.378	4.48293
220.498	4.48493
220.561	4.48558
220.627	4.48615
220.699	4.48669
222.394	4.50483
222.394	4.50483
222.396	4.50364
222.398	4.50245
222.399	4.50126
222.61	4.50552
222.829	4.50613
223.054	4.50671
224.803	4.53183
224.909	4.53186
225.02	4.53189
225.134	4.53192
231.691	4.61752
231.754	4.61839
231.819	4.61926
231.891	4.62013
233.07	4.63371
233.107	4.63469
233.147	4.63559
233.193	4.63646
239.207	4.69266
240.015	4.69524
240.39	4.69485
240.59	4.69691
240.695	4.69578
241.003	4.69672
241.317	4.69765
241.317	4.69765
254.32	4.45687
254.469	4.45993
254.524	4.45693
254.612	4.45814
254.621	4.4629
254.699	4.45936
254.779	4.46584
254.786	4.46057
264.771	4.33618
264.908	4.33809
264.95	4.33538
265.078	4.33757
265.13	4.33457
265.255	4.33698
265.31	4.33377
265.434	4.33636
265.434	4.33636
265.435	4.33528
265.437	4.33414
265.439	4.33296
274.416	4.36819
274.437	4.36749
274.455	4.36887
274.482	4.36802
274.509	4.36713
274.536	4.36617
274.536	4.36617
275.39	4.36845
275.45	4.36913
275.563	4.36779
276.113	4.36931
276.117	4.36659
276.156	4.36846
276.205	4.36758
276.257	4.36663
276.385	4.36666
276.513	4.36584
276.554	4.36704
276.603	4.36587
276.692	4.36589
276.728	4.36738
276.781	4.36592
276.906	4.36765
277.828	4.37419
277.868	4.37505
277.915	4.37591
277.964	4.37678
279.266	4.38512
279.306	4.38598
279.353	4.38684
279.402	4.38771
284.089	4.35018
284.132	4.34934
284.181	4.3485
284.233	4.34766
285.851	4.32343
285.892	4.32429
285.939	4.32515
285.988	4.32602
287.613	4.29737
287.653	4.29835
287.7	4.29925
287.749	4.30013
293.681	4.13859
293.718	4.13945
293.759	4.14032
293.805	4.14118
294.812	4.09042
294.952	4.08888
295.025	4.08661
295.08	4.09049
295.093	4.08165
295.123	4.08761
295.169	4.08468
295.221	4.08169
