Uv/Vis Spectrum: dinaphtho[2,1-b:1',2'-d]furan
Formula: C20H12O
CAS: 194-63-8
Melting point: 157-158
Instrument: unknown
Origin: INSTITUTE OF ENERGY PROBLEMS OF CHEMICAL PHYSICS, RAS
Wavelength (nm)	Logarithm epsilon
242.241	4.408
243.241	4.396
244.241	4.391
245.241	4.392
246.241	4.4
247.241	4.413
248.241	4.432
249.726	4.453
251.296	4.458
252.865	4.45
254.435	4.446
256.004	4.454
257.574	4.478
259.134	4.491
260.134	4.489
261.134	4.477
262.134	4.459
263.134	4.435
264.134	4.406
265.134	4.375
266.134	4.342
267.134	4.309
267.308	4.302
268.308	4.276
269.308	4.245
270.308	4.209
271.308	4.171
272.308	4.13
273.308	4.088
274.308	4.046
274.574	4.033
275.574	4
276.574	3.976
277.574	3.958
278.574	3.948
279.574	3.942
280.574	3.941
281.574	3.944
282.574	3.949
283.574	3.957
284.565	3.966
285.565	3.976
286.565	3.993
287.565	4.014
288.565	4.032
289.565	4.044
290.377	4.044
291.377	4.038
292.377	4.036
293.377	4.039
294.377	4.045
295.377	4.056
296.377	4.07
297.461	4.091
298.461	4.117
299.461	4.137
300.461	4.15
301.461	4.153
302.461	4.145
303.456	4.13
304.456	4.079
305.456	4.037
306.456	4.001
307.456	3.971
308.456	3.946
309.456	3.926
310.456	3.91
311.456	3.897
312.456	3.888
313.456	3.882
314.456	3.879
315.456	3.878
316.456	3.879
317.456	3.883
318.456	3.89
319.456	3.899
320.456	3.912
320.53	3.913
321.53	3.935
322.53	3.971
323.437	4.012
324.437	4.047
325.437	4.064
326.437	4.068
327.437	4.064
328.341	4.063
329.341	4.056
330.341	4.054
331.341	4.056
332.341	4.063
333.341	4.075
334.341	4.092
335.341	4.113
336.607	4.145
337.607	4.186
338.607	4.234
339.607	4.282
340.607	4.321
341.607	4.344
342.607	4.343
343.275	4.329
343.691	4.311
344.691	4.281
345.691	4.249
346.505	4.224
347.505	4.187
348.505	4.186
349.505	4.209
350.502	4.244
351.502	4.319
352.502	4.388
353.502	4.444
354.502	4.483
355.502	4.498
356.496	4.482
357.496	4.399
358.496	4.315
359.496	4.23
360.496	4.147
361.496	4.064
362.496	3.982
363.496	3.902
364.496	3.824
365.496	3.748
366.496	3.676
367.496	3.607
368.496	3.542
369.496	3.481
370.496	3.424
371.496	3.373
372.496	3.326
373.496	3.285
374.496	3.25
375.496	3.221
376.496	3.198
377.496	3.181
378.496	3.171
379.203	3.158
