Uv/Vis Spectrum: Benzo[c]phenanthrene
Formula: C18H12
CAS: 195-19-7
Melting point: 68
Instrument: Beckman DU
Origin: INSTITUTE OF ENERGY PROBLEMS OF CHEMICAL PHYSICS, RAS
Wavelength (nm)	Logarithm epsilon
222.07	4.551
222.31	4.543
222.56	4.538
222.8	4.525
223.54	4.5
224.28	4.487
225.76	4.467
227.24	4.449
227.98	4.444
228.71	4.434
229.45	4.424
232.41	4.383
233.89	4.36
234.62	4.345
235.36	4.32
236.84	4.284
238.32	4.261
239.79	4.254
240.53	4.254
241.27	4.256
242.01	4.259
243.49	4.269
244.23	4.272
244.97	4.282
245.7	4.287
247.18	4.307
247.92	4.325
248.66	4.335
249.4	4.35
250.14	4.358
253.09	4.376
254.57	4.368
256.05	4.353
257.52	4.34
258.26	4.338
260.48	4.35
261.22	4.365
262.69	4.396
263.43	4.409
264.17	4.424
264.91	4.434
265.65	4.452
266.39	4.462
267.13	4.482
267.87	4.49
268.6	4.505
270.08	4.538
271.56	4.571
272.18	4.586
273.04	4.602
273.78	4.622
274.51	4.637
275.25	4.65
275.99	4.668
276.73	4.675
278.21	4.685
278.95	4.685
280.42	4.66
281.16	4.645
281.9	4.629
282.64	4.602
283.38	4.581
284.12	4.561
284.86	4.546
285.6	4.505
286.33	4.477
287.07	4.464
287.81	4.434
288.55	4.409
289.29	4.373
290.03	4.353
292.24	4.277
292.98	4.249
293.72	4.216
295.2	4.203
295.94	4.178
296.68	4.152
297.41	4.122
298.15	4.076
298.89	4.046
299.63	4.03
300.37	4.005
301.11	3.992
301.85	3.977
302.59	3.959
303.32	3.949
304.06	3.937
304.8	3.929
305.54	3.921
307.02	3.904
307.76	3.898
309.23	3.886
309.97	3.883
310.71	3.876
312.19	3.871
312.93	3.871
315.14	3.86
315.88	3.855
316.62	3.848
318.84	3.825
319.58	3.81
320.31	3.794
321.05	3.774
321.79	3.756
322.53	3.731
323.27	3.721
324.01	3.695
324.75	3.68
325.49	3.655
326.22	3.645
326.96	3.624
327.7	3.594
328.44	3.571
329.92	3.525
330.66	3.5
331.4	3.48
332.13	3.459
332.87	3.444
333.61	3.421
334.35	3.411
335.09	3.391
335.83	3.381
336.57	3.363
337.31	3.348
338.04	3.325
338.78	3.289
339.52	3.241
340.26	3.188
341	3.117
341.74	3.084
342.48	3.041
343.95	3.018
345.43	3.013
346.17	3.018
346.91	3.043
347.65	3.069
348.39	3.096
349.12	3.132
349.86	3.17
350.6	3.203
351.34	3.234
352.08	3.254
352.79	3.261
353.56	3.256
354.3	3.234
355.03	3.185
355.77	3.122
356.51	3.061
357.25	3.013
357.99	2.967
358.73	2.926
359.47	2.911
360.21	2.898
360.94	2.896
361.68	2.898
362.42	2.911
363.16	2.929
363.9	2.962
364.64	3.01
365.38	3.043
366.11	3.089
366.85	3.117
367.59	3.157
368.33	3.195
369.07	3.249
369.47	3.263
369.84	3.271
370.21	3.274
370.55	3.269
371.29	3.221
372.02	3.16
372.76	3.099
373.5	3.036
374.24	2.992
