Uv/Vis Spectrum: 2-(4-nitrophenyl)-4H-1-benzopyran-4-one
Formula: C15H9NO4
CAS: 19725-49-6
Melting point: 244-246
Instrument: Pye Unicam SP 8000
Origin: INSTITUTE OF ENERGY PROBLEMS OF CHEMICAL PHYSICS, RAS
Wavelength (nm)	Logarithm epsilon
210.64	4.449
210.876	4.449
211.876	4.45
212.876	4.448
213.876	4.443
214.876	4.437
215.876	4.429
216.876	4.422
217.876	4.415
218.876	4.407
219.876	4.4
220.876	4.394
221.876	4.386
222.876	4.379
223.876	4.37
224.876	4.36
225.876	4.348
226.876	4.335
227.876	4.319
228.876	4.301
229.876	4.281
230.876	4.26
231.876	4.237
232.751	4.22
233.751	4.192
234.751	4.168
235.751	4.149
236.751	4.133
237.751	4.119
238.751	4.108
239.751	4.098
240.751	4.091
241.751	4.086
242.751	4.083
243.751	4.082
244.751	4.084
245.751	4.087
246.751	4.092
247.751	4.098
248.751	4.105
249.751	4.113
250.751	4.122
251.751	4.133
252.509	4.143
253.509	4.162
254.509	4.176
255.509	4.188
256.509	4.198
257.509	4.207
258.509	4.217
259.509	4.227
260.509	4.237
261.509	4.247
262.509	4.257
263.509	4.266
264.509	4.274
265.509	4.28
266.509	4.284
267.509	4.285
268.509	4.284
269.509	4.28
270.386	4.275
271.386	4.268
272.386	4.264
273.386	4.26
274.386	4.257
275.386	4.253
276.386	4.248
277.386	4.241
278.386	4.234
279.386	4.227
280.386	4.219
281.456	4.213
282.456	4.208
283.456	4.204
284.456	4.202
285.456	4.201
286.456	4.202
287.456	4.206
288.456	4.211
289.456	4.218
290.456	4.227
291.456	4.238
291.555	4.239
292.555	4.249
293.555	4.261
294.555	4.274
295.555	4.286
296.555	4.298
297.555	4.31
298.555	4.32
299.555	4.33
300.555	4.338
301.555	4.345
302.555	4.351
303.555	4.355
304.555	4.358
305.555	4.36
306.555	4.361
307.555	4.36
308.555	4.359
309.555	4.356
310.555	4.353
311.555	4.35
312.254	4.345
313.254	4.342
314.254	4.339
315.254	4.335
316.254	4.33
317.254	4.324
318.254	4.317
319.254	4.31
320.254	4.301
321.254	4.292
322.254	4.283
323.254	4.272
324.254	4.261
325.254	4.25
326.254	4.238
327.254	4.226
328.254	4.213
329.254	4.199
330.254	4.186
331.254	4.172
332.254	4.158
333.254	4.143
334.254	4.128
335.254	4.113
336.254	4.098
337.254	4.083
338.254	4.068
339.254	4.053
340.254	4.038
341.254	4.023
342.254	4.008
343.254	3.993
344.254	3.979
345.254	3.964
346.254	3.95
346.477	3.947
347.477	3.931
348.477	3.914
349.477	3.895
350.477	3.875
351.477	3.852
352.477	3.828
353.477	3.801
354.477	3.772
355.477	3.74
356.477	3.705
356.946	3.688
