Uv/Vis Spectrum: 8-nitrodibenzo[c,e][1,2]dithiin-3-amine
Formula: C12H8N2O2S2
CAS: 19733-90-5
Melting point: 180.5-181.5
Instrument: SFD-2
Origin: INSTITUTE OF ENERGY PROBLEMS OF CHEMICAL PHYSICS, RAS
Wavelength (nm)	Logarithm epsilon
211.979	4.618
212.477	4.615
213.477	4.625
214.477	4.632
215.477	4.636
216.477	4.638
217.477	4.637
218.477	4.635
219.477	4.631
220.477	4.624
221.477	4.617
222.477	4.608
223.477	4.597
224.477	4.585
225.477	4.573
226.477	4.559
227.477	4.544
228.477	4.529
229.477	4.513
230.477	4.497
231.477	4.48
232.477	4.463
233.477	4.446
234.477	4.429
235.477	4.411
236.477	4.394
237.477	4.377
238.477	4.36
239.477	4.343
240.477	4.327
241.477	4.311
242.477	4.295
243.477	4.28
244.477	4.265
245.477	4.251
246.477	4.238
247.477	4.225
248.477	4.213
249.477	4.201
250.477	4.191
251.477	4.18
252.477	4.171
253.477	4.162
254.477	4.154
255.477	4.147
256.477	4.14
257.477	4.134
258.477	4.128
259.477	4.123
260.477	4.119
261.477	4.115
262.477	4.112
263.477	4.109
264.477	4.106
265.477	4.104
266.477	4.102
267.477	4.1
268.477	4.098
269.477	4.096
270.477	4.094
271.477	4.092
272.477	4.09
273.477	4.088
274.477	4.085
274.746	4.085
275.746	4.079
276.746	4.074
277.746	4.07
278.746	4.066
279.746	4.063
280.746	4.058
281.746	4.054
282.746	4.048
283.746	4.042
284.746	4.035
285.746	4.026
286.746	4.017
287.746	4.006
288.746	3.993
289.746	3.98
290.746	3.965
291.746	3.95
292.746	3.933
293.746	3.915
294.746	3.897
295.746	3.878
296.746	3.858
297.746	3.839
298.746	3.819
299.746	3.799
300.746	3.779
301.746	3.76
302.746	3.742
303.746	3.725
304.746	3.708
305.746	3.693
306.746	3.68
307.746	3.668
308.746	3.657
309.746	3.649
310.746	3.642
311.746	3.638
312.746	3.635
313.746	3.635
314.746	3.636
315.746	3.64
316.746	3.645
317.746	3.652
318.746	3.66
319.746	3.669
320.746	3.679
321.746	3.69
322.746	3.7
323.746	3.71
324.064	3.712
325.064	3.723
326.064	3.734
327.064	3.746
328.064	3.758
329.064	3.769
330.064	3.781
331.064	3.793
332.064	3.805
333.064	3.818
334.064	3.83
335.064	3.842
336.064	3.854
337.064	3.865
338.064	3.877
339.064	3.889
340.064	3.9
341.064	3.912
342.064	3.923
343.064	3.933
344.064	3.944
345.064	3.954
346.064	3.964
347.064	3.974
348.064	3.983
349.064	3.992
350.064	4.001
351.064	4.009
352.064	4.017
353.064	4.024
354.064	4.031
355.064	4.037
356.064	4.043
357.064	4.048
358.064	4.053
359.064	4.057
360.064	4.061
361.064	4.064
362.064	4.066
363.064	4.068
364.064	4.069
365.064	4.07
366.064	4.07
367.064	4.069
368.064	4.068
369.064	4.066
370.064	4.064
371.064	4.061
372.064	4.058
373.064	4.054
374.064	4.049
375.064	4.045
376.064	4.04
377.064	4.034
378.064	4.028
379.064	4.022
380.064	4.016
381.064	4.01
382.064	4.003
383.064	3.997
384.064	3.99
385.064	3.984
386.064	3.978
387.064	3.972
388.064	3.967
389.064	3.961
390.064	3.957
391.064	3.953
392.064	3.949
393.064	3.947
394.064	3.945
395.064	3.944
396.064	3.943
396.794	3.946
397.794	3.945
398.794	3.945
399.794	3.945
400.794	3.947
401.794	3.948
402.794	3.951
403.794	3.954
404.794	3.957
405.794	3.961
406.794	3.965
407.794	3.969
408.794	3.974
409.794	3.979
410.794	3.984
411.794	3.989
412.794	3.994
413.794	4
414.794	4.005
415.794	4.01
416.794	4.015
417.794	4.021
418.794	4.026
419.794	4.031
420.794	4.035
421.794	4.04
422.794	4.044
423.794	4.048
424.794	4.052
425.794	4.055
426.794	4.059
427.794	4.062
428.794	4.064
429.794	4.066
430.794	4.068
431.794	4.07
432.794	4.071
433.794	4.072
434.794	4.072
435.794	4.072
436.794	4.072
437.794	4.071
438.794	4.07
439.794	4.068
440.794	4.066
441.794	4.064
442.794	4.061
443.794	4.058
444.794	4.055
445.794	4.051
446.794	4.047
447.794	4.043
448.794	4.038
449.794	4.033
450.794	4.027
451.794	4.022
452.794	4.015
453.794	4.009
454.794	4.002
455.794	3.995
456.794	3.988
457.794	3.98
458.794	3.972
459.794	3.963
460.794	3.954
461.794	3.945
462.794	3.935
463.794	3.924
464.794	3.914
465.794	3.902
466.794	3.89
467.794	3.877
468.794	3.863
469.794	3.849
470.521	3.834
471.521	3.821
472.521	3.807
473.521	3.792
474.521	3.776
475.521	3.759
476.521	3.743
477.521	3.727
478.521	3.711
479.521	3.695
480.521	3.68
481.521	3.666
482.521	3.652
483.521	3.638
484.521	3.625
485.521	3.612
486.521	3.6
487.521	3.588
488.521	3.575
489.521	3.563
490.521	3.55
491.521	3.537
492.521	3.523
493.521	3.508
494.521	3.493
495.521	3.476
496.521	3.459
497.421	3.444
498.421	3.423
499.421	3.402
500.421	3.38
501.421	3.358
502.421	3.336
503.421	3.314
504.421	3.291
505.421	3.269
506.421	3.246
507.421	3.223
508.421	3.199
509.421	3.176
510.421	3.152
511.421	3.128
512.421	3.104
513.421	3.079
514.421	3.054
515.421	3.028
516.421	3.002
517.421	2.976
518.421	2.949
519.421	2.921
520.421	2.893
521.421	2.864
522.421	2.835
523.421	2.805
524.421	2.774
525.421	2.743
526.421	2.711
527.421	2.679
528.421	2.646
529.421	2.613
530.729	2.563
532.292	2.519
