Uv/Vis Spectrum: dibenzo[c,e][1,2]dithiin-3,8-diamine
Formula: C12H10N2S2
CAS: 19733-91-6
Melting point: 175.5-176.5
Instrument: SFD-2
Origin: INSTITUTE OF ENERGY PROBLEMS OF CHEMICAL PHYSICS, RAS
Wavelength (nm)	Logarithm epsilon
218.683	4.495
219.052	4.492
220.052	4.499
221.052	4.503
222.052	4.505
223.052	4.505
224.052	4.503
225.052	4.501
226.052	4.498
227.052	4.495
228.052	4.492
229.052	4.488
230.052	4.485
231.052	4.482
232.052	4.478
233.052	4.475
234.052	4.472
235.052	4.468
236.052	4.464
237.052	4.46
238.052	4.456
239.052	4.451
240.052	4.445
241.052	4.439
242.052	4.432
243.052	4.424
244.052	4.415
245.052	4.406
245.255	4.403
246.255	4.395
247.255	4.384
248.255	4.372
249.255	4.358
250.255	4.343
251.255	4.329
252.255	4.316
253.255	4.304
254.255	4.293
255.255	4.282
256.255	4.272
257.255	4.262
258.255	4.249
259.255	4.233
260.22	4.215
261.22	4.205
262.22	4.202
263.22	4.202
264.22	4.206
265.22	4.209
266.22	4.211
267.22	4.21
268.22	4.204
269.22	4.194
270.22	4.18
271.22	4.163
272.22	4.145
273.22	4.128
274.22	4.114
275.22	4.105
276.22	4.099
277.22	4.094
278.22	4.085
279.22	4.063
279.708	4.056
280.708	4.046
281.708	4.039
282.708	4.032
283.708	4.028
284.708	4.025
285.708	4.023
286.708	4.024
287.708	4.026
288.708	4.029
289.708	4.035
290.708	4.042
291.708	4.05
292.708	4.059
293.708	4.07
294.708	4.081
295.708	4.094
296.708	4.107
297.708	4.12
298.708	4.134
299.708	4.147
300.708	4.161
301.708	4.173
301.721	4.174
302.721	4.185
303.721	4.198
304.721	4.211
305.721	4.224
306.721	4.236
307.721	4.248
308.721	4.257
309.721	4.266
310.721	4.273
311.721	4.277
312.721	4.28
313.721	4.281
314.721	4.279
315.721	4.276
316.721	4.27
317.721	4.263
318.721	4.253
319.721	4.241
320.721	4.228
321.721	4.213
322.721	4.196
323.721	4.177
324.721	4.158
325.721	4.136
326.721	4.114
327.721	4.091
328.721	4.067
329.721	4.043
330.721	4.018
331.721	3.992
332.721	3.967
333.721	3.942
334.721	3.918
335.721	3.895
336.721	3.873
337.721	3.853
337.889	3.85
338.889	3.832
339.889	3.815
340.889	3.799
341.889	3.783
342.889	3.768
343.889	3.754
344.889	3.74
345.889	3.727
346.889	3.714
347.889	3.701
348.889	3.689
349.889	3.677
350.889	3.666
351.889	3.655
352.889	3.645
353.889	3.635
354.889	3.626
355.889	3.617
356.889	3.608
357.889	3.6
358.889	3.592
359.889	3.584
360.889	3.577
361.889	3.571
362.889	3.564
363.889	3.558
364.889	3.553
365.889	3.548
366.889	3.543
367.889	3.539
368.889	3.535
369.889	3.531
370.889	3.527
371.889	3.524
372.889	3.521
373.889	3.518
374.889	3.515
375.889	3.513
376.889	3.51
377.889	3.508
378.889	3.505
379.889	3.502
380.889	3.499
381.889	3.496
382.889	3.493
383.889	3.49
384.889	3.486
385.889	3.482
386.889	3.477
387.889	3.472
388.889	3.466
389.889	3.459
390.889	3.452
391.889	3.445
392.889	3.436
393.889	3.427
394.889	3.418
395.889	3.407
396.889	3.396
397.889	3.384
398.889	3.372
399.522	3.356
400.522	3.348
401.522	3.338
402.522	3.328
403.522	3.316
404.522	3.304
405.522	3.29
406.522	3.276
407.522	3.261
408.522	3.245
409.522	3.229
410.522	3.212
411.522	3.194
412.522	3.176
413.522	3.157
414.522	3.138
415.522	3.118
416.522	3.098
417.522	3.077
418.522	3.057
419.522	3.035
420.522	3.014
421.522	2.992
422.522	2.97
423.522	2.948
424.522	2.925
425.522	2.902
426.522	2.879
427.522	2.856
428.522	2.833
429.522	2.809
430.522	2.785
431.522	2.761
432.522	2.736
433.522	2.711
434.522	2.687
435.522	2.661
436.522	2.636
437.522	2.611
438.522	2.585
439.522	2.559
440.522	2.533
441.522	2.507
442.522	2.48
443.522	2.454
444.522	2.427
445.522	2.4
446.522	2.374
447.522	2.347
448.522	2.32
449.522	2.294
450.522	2.268
451.522	2.242
452.522	2.216
453.773	2.191
