Uv/Vis Spectrum: 2,6-Pyridinedicarboxylic acid, 4-methoxy-, dimethyl ester
Formula: C10H11NO5
CAS: 19872-93-6
Melting point: 127-128
Instrument: n.i.g.
Origin: INSTITUTE OF ENERGY PROBLEMS OF CHEMICAL PHYSICS, RAS
Wavelength (nm)	Logarithm epsilon
222.552	3.83906
222.968	3.82321
223.348	3.80741
223.698	3.7916
224.02	3.77572
224.319	3.75973
224.6	3.74356
224.866	3.72718
225.121	3.71053
225.369	3.69354
225.615	3.67618
225.862	3.65838
225.862	3.65838
226.173	3.62251
226.426	3.59355
226.63	3.57045
226.795	3.5522
226.932	3.53776
227.051	3.52611
227.162	3.5162
227.274	3.50703
227.399	3.49754
227.545	3.48672
227.545	3.48672
227.657	3.48668
227.768	3.48664
227.879	3.48659
227.879	3.48659
228.327	3.4689
228.802	3.45154
229.305	3.43437
229.837	3.41723
230.397	3.39997
230.985	3.38244
231.602	3.36448
231.602	3.36448
232.476	3.34677
232.953	3.33606
233.441	3.32319
233.441	3.32319
234.402	3.3118
235.717	3.29461
236.91	3.27692
237.501	3.26399
237.501	3.26399
238.443	3.25384
239.33	3.24386
240.166	3.23399
240.957	3.22413
241.707	3.21422
242.422	3.20419
243.107	3.19395
243.766	3.18343
244.405	3.17255
245.029	3.16124
245.643	3.14942
246.251	3.13701
246.86	3.12394
247.473	3.11014
248.096	3.09552
248.735	3.08002
248.735	3.08002
249.125	3.0622
249.515	3.04426
249.905	3.02626
