Uv/Vis Spectrum: 1-methyl-1H-pyrazolo[3,4-b]pyrazine
Formula: C6H6N4
CAS: 19868-88-3
Melting point: 102-103
Instrument: Unicam SP-800
Origin: INSTITUTE OF ENERGY PROBLEMS OF CHEMICAL PHYSICS, RAS
Wavelength (nm)	Logarithm epsilon
206.859	3.49
207.916	3.662
208.859	3.83
209.859	4.015
210.859	4.086
210.86	4.085
211.86	4.11
212.86	4.129
213.86	4.142
214.86	4.15
215.86	4.151
216.86	4.146
217.86	4.133
218.86	4.11
219.86	4.074
220.86	4.019
221.441	3.968
221.922	3.92
222.922	3.798
223.922	3.668
224.922	3.533
225.922	3.395
226.922	3.262
227.806	3.164
228.806	3.061
229.806	2.958
230.806	2.856
231.806	2.755
232.806	2.661
233.806	2.575
234.806	2.502
235.806	2.445
236.806	2.404
237.806	2.382
238.806	2.374
239.806	2.38
240.806	2.395
241.806	2.418
242.806	2.446
243.806	2.479
244.806	2.516
245.806	2.555
246.806	2.598
247.806	2.643
248.806	2.691
249.806	2.74
250.806	2.791
251.806	2.843
252.806	2.896
253.806	2.948
254.806	3
255.806	3.05
256.806	3.099
257.806	3.145
258.806	3.19
259.713	3.23
260.579	3.262
261.579	3.293
262.579	3.328
263.579	3.366
264.579	3.405
265.579	3.444
266.579	3.482
267.579	3.518
268.579	3.553
269.579	3.585
270.579	3.616
271.579	3.644
272.579	3.669
273.579	3.693
274.579	3.714
275.579	3.732
276.579	3.749
277.579	3.763
278.579	3.774
279.579	3.784
280.579	3.79
281.579	3.795
282.579	3.796
283.579	3.795
284.579	3.79
285.579	3.782
286.579	3.77
286.646	3.769
287.646	3.753
288.646	3.739
289.646	3.728
290.646	3.718
291.646	3.71
292.646	3.704
293.646	3.699
294.646	3.695
295.646	3.692
296.646	3.69
297.646	3.689
298.646	3.688
299.646	3.687
300.646	3.686
301.646	3.686
302.646	3.685
303.646	3.685
304.646	3.684
305.646	3.683
306.646	3.681
307.646	3.679
308.646	3.677
309.607	3.674
310.607	3.673
311.607	3.67
312.607	3.666
313.607	3.662
314.607	3.656
315.607	3.65
316.607	3.644
317.607	3.637
318.607	3.631
319.607	3.623
320.607	3.616
321.607	3.608
322.607	3.599
323.607	3.59
324.607	3.58
325.607	3.57
326.607	3.558
327.607	3.546
328.607	3.534
329.607	3.521
330.607	3.509
331.607	3.497
332.531	3.479
333.531	3.461
334.531	3.44
335.531	3.418
336.531	3.394
337.531	3.367
338.531	3.338
339.531	3.307
340.531	3.273
341.531	3.237
