Uv/Vis Spectrum: trans-1,3-Pentadiene
Formula: C5H8
CAS: 2004-70-8
Boiling point: 42
Instrument: SF-4
Origin: INSTITUTE OF ENERGY PROBLEMS OF CHEMICAL PHYSICS, RAS
Wavelength (nm)	Logarithm epsilon
216.31	4.192
216.4	4.194
216.48	4.195
216.57	4.196
216.66	4.198
216.74	4.199
216.83	4.2
217.18	4.204
217.61	4.211
218.04	4.215
218.47	4.219
218.91	4.223
219.34	4.225
219.77	4.227
220.2	4.227
220.63	4.222
221.07	4.211
221.5	4.202
221.93	4.194
222.36	4.19
222.8	4.188
223.23	4.186
223.66	4.183
224.09	4.181
224.53	4.178
224.96	4.173
225.39	4.169
225.82	4.163
226.25	4.157
226.69	4.152
227.12	4.144
227.55	4.134
227.98	4.126
228.42	4.117
228.85	4.109
229.28	4.101
229.71	4.095
230.14	4.088
230.58	4.081
231.01	4.071
231.44	4.062
231.87	4.051
232.33	4.04
232.75	4.025
233.15	3.997
233.6	3.95
234.04	3.893
234.47	3.81
234.9	3.736
235.33	3.652
235.76	3.579
236.2	3.507
236.63	3.421
237.06	3.348
237.49	3.268
237.93	3.194
238.36	3.143
238.79	3.074
