Uv/Vis Spectrum: 9H-Purin-6-amine,N,9-dimethyl-
Formula: C7H9N5
CAS: 2009-52-1
Melting point: 185-186
Instrument: Hitachi EPS-20
Origin: INSTITUTE OF ENERGY PROBLEMS OF CHEMICAL PHYSICS, RAS
Wavelength (nm)	Logarithm epsilon
231.19	3.293
232.06	3.307
233.03	3.316
233.9	3.333
234.66	3.354
235.52	3.37
236.28	3.389
237.04	3.412
237.8	3.429
238.45	3.453
239.1	3.472
239.75	3.493
240.29	3.516
240.72	3.538
241.26	3.557
241.69	3.577
242.13	3.596
242.67	3.614
242.99	3.632
243.43	3.649
243.86	3.665
244.18	3.681
244.51	3.696
244.94	3.711
245.27	3.727
245.59	3.74
245.92	3.755
246.24	3.768
246.57	3.781
246.89	3.793
247.22	3.806
247.54	3.819
247.87	3.83
248.19	3.841
248.52	3.853
248.84	3.864
249.17	3.875
249.49	3.886
249.82	3.897
250.14	3.907
250.47	3.918
250.79	3.928
251.12	3.937
251.44	3.947
251.76	3.956
252.09	3.965
252.41	3.974
252.63	3.983
252.96	3.992
253.28	4
253.61	4.008
253.82	4.016
254.15	4.024
254.47	4.032
254.69	4.04
255.01	4.047
255.34	4.055
255.55	4.062
255.77	4.069
255.88	4.076
256.31	4.082
256.53	4.089
256.85	4.096
257.18	4.103
257.5	4.109
257.83	4.115
258.15	4.122
258.48	4.128
258.8	4.134
259.13	4.14
259.56	4.146
259.89	4.152
260.21	4.157
260.54	4.162
260.97	4.167
261.29	4.172
261.73	4.177
262.16	4.182
262.48	4.187
262.92	4.191
263.46	4.196
263.89	4.201
264.54	4.204
265.41	4.207
266.27	4.209
267.25	4.21
268.22	4.211
269.2	4.21
270.17	4.209
271.04	4.207
271.91	4.204
272.66	4.2
273.2	4.196
273.75	4.191
274.07	4.187
274.4	4.181
274.61	4.176
274.83	4.17
275.05	4.165
275.15	4.159
275.37	4.153
275.59	4.147
275.8	4.141
276.02	4.135
276.24	4.129
276.45	4.123
276.67	4.116
276.89	4.11
277.1	4.103
277.32	4.097
277.64	4.091
277.75	4.084
277.97	4.077
278.19	4.07
278.4	4.063
278.62	4.056
278.84	4.048
279.05	4.041
279.27	4.033
279.48	4.025
279.81	4.017
280.03	4.009
280.13	4.001
280.46	3.993
280.68	3.984
280.89	3.975
281.11	3.966
281.43	3.958
281.65	3.949
281.87	3.939
282.08	3.93
282.3	3.92
282.52	3.91
282.84	3.899
283.06	3.889
283.27	3.878
283.49	3.867
283.71	3.855
284.03	3.843
284.25	3.831
284.47	3.819
284.68	3.806
284.9	3.793
285.12	3.779
285.33	3.765
285.55	3.75
285.87	3.735
286.09	3.72
286.31	3.704
286.63	3.687
286.85	3.669
287.17	3.651
287.39	3.632
287.71	3.612
287.93	3.591
288.26	3.572
288.58	3.551
288.91	3.53
289.23	3.508
289.56	3.484
289.88	3.459
290.2	3.433
290.64	3.404
291.18	3.374
291.5	3.342
292.15	3.311
292.59	3.273
293.13	3.237
293.67	3.192
294.1	3.142
294.64	3.092
295.19	3.028
