Uv/Vis Spectrum: 1,1'-Biphenyl, 2-propyl-
Formula: C15H16
CAS: 20282-28-4
Instrument: unknown
Origin: INSTITUTE OF ENERGY PROBLEMS OF CHEMICAL PHYSICS, RAS
Wavelength (nm)	Logarithm epsilon
215.37	4.289
215.58	4.28
215.75	4.272
215.92	4.264
216.09	4.255
216.21	4.247
216.38	4.239
216.59	4.23
216.72	4.222
216.89	4.214
217.02	4.205
217.23	4.197
217.36	4.189
217.52	4.18
217.69	4.172
217.82	4.164
217.95	4.155
218.12	4.147
218.24	4.139
218.45	4.13
218.58	4.122
218.75	4.114
218.88	4.105
219.05	4.097
219.21	4.089
219.43	4.08
219.6	4.072
219.76	4.064
219.93	4.055
220.1	4.047
220.31	4.039
220.48	4.03
220.65	4.022
220.78	4.014
220.99	4.005
221.2	3.997
221.41	3.989
221.58	3.98
221.79	3.973
222	3.966
222.22	3.958
222.47	3.951
222.72	3.944
223.02	3.939
223.32	3.932
223.65	3.927
223.99	3.923
224.37	3.92
224.75	3.918
225.13	3.919
225.51	3.919
225.89	3.919
226.27	3.921
226.65	3.922
227.04	3.925
227.37	3.928
227.75	3.93
228.09	3.933
228.47	3.935
228.81	3.939
229.15	3.943
229.49	3.946
229.82	3.95
230.21	3.952
230.54	3.956
230.88	3.96
231.26	3.962
231.6	3.966
231.98	3.968
232.36	3.971
232.74	3.972
233.12	3.974
233.5	3.975
233.88	3.975
234.26	3.974
234.64	3.974
235.02	3.973
235.4	3.971
235.79	3.97
236.17	3.968
236.55	3.965
236.93	3.964
237.26	3.96
237.6	3.956
237.98	3.953
238.32	3.949
238.66	3.946
239	3.942
239.34	3.938
239.67	3.933
240.01	3.929
240.31	3.924
240.65	3.919
240.98	3.914
241.28	3.908
241.58	3.903
241.91	3.898
242.21	3.893
242.51	3.886
242.84	3.881
243.14	3.875
243.44	3.869
243.73	3.862
243.99	3.856
244.28	3.851
244.54	3.844
244.83	3.839
245.08	3.832
245.34	3.825
245.59	3.818
245.85	3.811
246.1	3.805
246.35	3.799
246.56	3.792
246.86	3.785
247.07	3.778
247.32	3.771
247.58	3.764
247.79	3.755
248.04	3.749
248.3	3.742
248.51	3.733
248.76	3.726
248.97	3.718
249.18	3.71
249.4	3.703
249.61	3.696
249.78	3.688
250.03	3.68
250.2	3.672
250.41	3.664
250.66	3.656
250.88	3.648
251.09	3.64
251.26	3.631
251.47	3.623
251.64	3.615
251.85	3.606
252.06	3.598
252.23	3.59
252.44	3.581
252.65	3.573
252.82	3.565
253.03	3.557
253.2	3.549
253.41	3.541
253.58	3.532
253.75	3.524
253.92	3.516
254.13	3.508
254.34	3.5
254.51	3.492
254.72	3.484
254.93	3.476
255.1	3.468
255.31	3.46
255.53	3.452
255.69	3.444
255.91	3.436
256.07	3.428
256.29	3.42
256.5	3.413
256.71	3.404
256.88	3.396
257.09	3.388
257.3	3.379
257.51	3.371
257.72	3.362
257.93	3.354
258.1	3.346
258.32	3.339
258.48	3.33
258.74	3.323
258.91	3.315
259.12	3.306
259.29	3.298
259.5	3.291
259.67	3.282
259.88	3.275
260.09	3.268
260.3	3.259
260.51	3.251
260.72	3.243
260.94	3.234
261.15	3.226
261.36	3.219
261.57	3.21
261.74	3.202
261.95	3.195
262.16	3.186
262.37	3.178
262.63	3.171
262.84	3.163
263.05	3.154
263.26	3.146
263.47	3.138
263.68	3.129
263.89	3.122
264.11	3.114
264.32	3.105
264.53	3.097
264.74	3.09
264.95	3.082
265.16	3.075
265.37	3.067
265.59	3.058
265.8	3.05
266.01	3.042
266.22	3.034
266.43	3.027
266.6	3.019
266.85	3.011
267.07	3.003
267.28	2.995
267.45	2.986
267.66	2.978
267.87	2.971
268.12	2.964
268.33	2.956
268.59	2.949
268.8	2.942
269.05	2.934
269.26	2.926
269.47	2.918
269.73	2.91
269.94	2.902
270.15	2.895
270.4	2.888
270.62	2.88
270.87	2.873
271.08	2.865
271.29	2.857
271.5	2.85
271.71	2.843
271.97	2.835
272.18	2.828
272.39	2.821
272.64	2.815
272.86	2.806
273.07	2.799
273.32	2.792
273.53	2.784
273.79	2.777
274	2.77
274.21	2.763
274.42	2.755
274.67	2.749
274.93	2.742
275.14	2.734
275.39	2.727
275.6	2.72
275.82	2.712
276.03	2.705
276.24	2.698
276.49	2.691
276.75	2.684
276.96	2.677
277.17	2.67
277.38	2.663
277.63	2.655
277.89	2.648
278.1	2.641
278.35	2.633
278.56	2.626
278.82	2.619
