Uv/Vis Spectrum: 3,5,7-Decatriyne, 2,2,9,9-tetramethyl-
Formula: C14H18
CAS: 20264-60-2
Melting point: 130-131
Instrument: Cary 14
Origin: INSTITUTE OF ENERGY PROBLEMS OF CHEMICAL PHYSICS, RAS
Wavelength (nm)	Logarithm epsilon
173.2	4.845
173.93	4.861
175.38	4.89
176.87	4.878
178.37	4.783
179.9	4.709
180.68	4.704
182.25	4.76
183.04	4.85
184.65	4.935
185.47	4.912
186.29	4.743
187.12	4.563
187.95	4.405
188.8	4.331
189.65	4.247
190.51	4.202
191.37	4.134
192.25	4.061
193.13	3.993
194.02	3.92
194.91	3.886
195.82	3.801
196.73	3.717
197.65	3.593
198.58	3.491
199.52	3.294
200.47	3.096
201.42	2.904
202.39	2.741
203.36	2.617
204.34	2.538
205.33	2.476
207.34	2.47
208.36	2.47
210.43	2.527
211.48	2.527
212.54	2.532
213.61	2.498
214.69	2.487
215.78	2.453
216.89	2.442
218	2.436
220.26	2.493
222.57	2.572
224.92	2.611
226.11	2.617
227.32	2.572
228.54	2.555
229.77	2.51
231.02	2.498
232.27	2.498
233.55	2.555
234.83	2.617
237.44	2.668
238.77	2.662
240.11	2.572
241.47	2.47
242.84	2.391
244.23	2.341
245.63	2.335
247.05	2.397
248.48	2.448
249.93	2.498
251.4	2.493
252.89	2.391
254.39	2.166
255.9	2.087
257.44	2.008
258.99	1.957
262.16	1.878
263.77	1.793
265.4	1.748
267.05	1.709
268.72	1.658
270.41	1.652
272.12	1.613
275.6	1.596
277.38	1.506
279.18	1.421
