Uv/Vis Spectrum: 3,5,7,9-Dodecatetrayne, 2,2,11,11-tetramethyl-
Formula: C16H18
CAS: 20264-61-3
Melting point: 99.5-100
Instrument: Cary 14
Origin: INSTITUTE OF ENERGY PROBLEMS OF CHEMICAL PHYSICS, RAS
Wavelength (nm)	Logarithm epsilon
193.84	3.77
198.69	3.932
198.97	3.958
199.38	3.982
199.52	4.006
199.8	4.028
199.94	4.049
200.22	4.069
200.5	4.107
200.78	4.125
201.21	4.142
201.49	4.158
201.63	4.174
201.92	4.189
202.2	4.204
202.49	4.218
202.92	4.232
203.21	4.232
203.36	4.232
203.5	4.232
203.65	4.232
203.79	4.232
203.94	4.232
204.37	4.245
204.52	4.245
204.67	4.245
204.81	4.245
204.96	4.245
205.11	4.245
205.25	4.245
205.4	4.245
205.55	4.245
205.7	4.258
205.99	4.27
206.14	4.283
206.44	4.306
206.59	4.317
206.74	4.328
206.89	4.339
207.04	4.349
207.19	4.37
207.34	4.379
207.49	4.398
207.64	4.407
207.79	4.425
207.94	4.442
208.09	4.45
208.25	4.466
208.4	4.474
208.55	4.489
208.7	4.504
208.86	4.518
209.01	4.532
209.16	4.545
209.31	4.558
209.47	4.571
209.62	4.589
209.78	4.601
209.93	4.607
210.08	4.618
210.24	4.623
210.39	4.629
210.55	4.629
210.7	4.629
210.86	4.629
211.01	4.629
211.17	4.629
211.33	4.623
211.48	4.618
211.8	4.595
211.95	4.583
212.11	4.577
212.27	4.558
212.43	4.539
212.59	4.532
212.74	4.511
212.9	4.497
213.06	4.474
213.22	4.466
213.38	4.45
213.54	4.425
213.7	4.416
213.86	4.398
214.02	4.389
214.18	4.379
214.34	4.379
214.5	4.37
214.66	4.37
214.82	4.37
214.98	4.37
215.15	4.37
215.31	4.37
215.47	4.379
215.63	4.389
215.8	4.398
215.96	4.407
216.12	4.425
216.29	4.434
216.45	4.45
216.61	4.474
216.78	4.482
216.94	4.511
217.11	4.518
217.27	4.545
217.44	4.565
217.6	4.577
217.77	4.607
217.94	4.618
218.1	4.66
218.27	4.694
218.44	4.721
218.6	4.755
218.77	4.767
218.94	4.805
219.11	4.816
219.27	4.843
219.44	4.862
219.61	4.878
219.78	4.899
219.95	4.905
220.12	4.924
220.29	4.933
220.46	4.935
220.63	4.938
220.8	4.935
220.97	4.927
221.14	4.921
221.31	4.899
221.48	4.878
221.66	4.862
221.83	4.823
222	4.809
222.17	4.771
222.35	4.747
222.52	4.713
222.69	4.67
222.87	4.65
223.04	4.583
223.21	4.565
223.39	4.518
223.56	4.489
223.74	4.474
223.91	4.442
224.09	4.434
224.27	4.425
224.44	4.425
224.62	4.416
224.79	4.416
224.97	4.425
225.15	4.434
225.33	4.434
225.5	4.45
225.68	4.458
225.86	4.489
226.04	4.511
226.22	4.525
226.4	4.577
226.58	4.595
226.76	4.66
226.94	4.685
227.12	4.717
227.3	4.767
227.48	4.79
227.66	4.84
227.84	4.859
228.02	4.905
228.21	4.933
228.39	4.954
228.57	5
228.75	5.042
228.94	5.062
229.12	5.111
229.31	5.127
229.49	5.191
229.58	5.207
229.67	5.22
229.77	5.239
229.86	5.266
229.95	5.283
230.04	5.289
230.14	5.291
230.23	5.308
230.32	5.319
230.41	5.333
230.51	5.335
230.6	5.337
230.69	5.343
230.79	5.345
230.88	5.347
230.97	5.349
231.07	5.35
231.16	5.351
231.25	5.353
231.35	5.352
231.44	5.349
231.54	5.344
231.63	5.334
231.72	5.323
231.82	5.32
231.91	5.316
232.01	5.308
232.1	5.293
232.19	5.279
232.29	5.276
232.38	5.27
232.48	5.26
232.57	5.239
232.67	5.227
232.76	5.218
232.86	5.204
232.95	5.162
233.05	5.117
233.62	4.99
233.81	4.941
234	4.907
234.19	4.878
234.38	4.833
234.58	4.809
234.77	4.755
234.96	4.721
235.16	4.68
235.35	4.66
235.54	4.64
235.74	4.623
235.93	4.623
236.13	4.618
236.32	4.618
236.52	4.623
236.71	4.629
236.91	4.634
237.11	4.655
237.3	4.665
237.5	4.694
237.7	4.704
237.9	4.734
238.1	4.759
238.29	4.771
238.49	4.809
238.69	4.823
238.89	4.875
239.09	4.924
239.29	4.993
239.49	5.052
239.69	5.068
239.89	5.127
240.1	5.167
240.3	5.183
240.5	5.253
240.7	5.271
240.91	5.327
241.11	5.347
241.31	5.383
241.52	5.429
241.72	5.448
241.93	5.483
242.13	5.506
242.34	5.516
242.54	5.531
242.75	5.533
242.95	5.511
243.16	5.503
243.37	5.481
243.58	5.457
243.78	5.422
243.99	5.399
244.2	5.388
244.41	5.36
244.62	5.312
244.83	5.267
245.04	5.229
245.25	5.179
245.46	5.132
245.67	5.04
245.88	4.988
246.09	4.896
246.31	4.798
246.52	4.759
246.73	4.69
246.94	4.655
247.16	4.601
247.37	4.565
247.59	4.525
247.8	4.474
248.02	4.442
248.23	4.379
248.45	4.349
248.66	4.295
248.88	4.258
249.1	4.218
249.31	4.174
249.53	4.142
249.75	4.069
249.97	4.049
250.19	3.982
250.41	3.932
250.63	3.874
250.85	3.842
250.96	3.807
251.07	3.807
251.18	3.77
251.29	3.77
251.4	3.729
251.51	3.729
251.62	3.683
251.73	3.683
251.84	3.632
251.95	3.632
252.06	3.575
252.18	3.575
252.29	3.509
252.4	3.509
252.51	3.431
252.62	3.431
252.73	3.335
252.84	3.335
252.96	3.213
253.07	3.213
