Uv/Vis Spectrum: Phenanthro[4,5-bcd]furan
Formula: C14H8O
CAS: 203-67-8
Melting point: 90-91
Instrument: Shimadzu UV-200
Origin: INSTITUTE OF ENERGY PROBLEMS OF CHEMICAL PHYSICS, RAS
Wavelength (nm)	Logarithm epsilon
206.12	4.09
207.62	4.112
209.12	4.129
210.62	4.144
212.12	4.158
213.62	4.174
215.12	4.193
216.62	4.217
218.12	4.245
219.62	4.278
221.12	4.316
222.62	4.358
224.12	4.404
225.62	4.451
227.12	4.498
228.427	4.537
229.927	4.578
231.427	4.617
232.888	4.658
234.427	4.682
236.234	4.682
237.362	4.642
239.022	4.592
240.51	4.544
241.811	4.479
243.51	4.341
245.01	4.221
246.51	4.188
248.01	4.238
249.432	4.305
250.932	4.36
252.432	4.385
254.265	4.386
255.765	4.383
257.265	4.405
258.765	4.451
258.913	4.454
260.413	4.477
261.913	4.504
263.188	4.517
263.842	4.546
264.675	4.517
265.618	4.45
267.118	4.327
268.618	4.166
270.252	3.957
271.752	3.77
273.252	3.66
274.752	3.611
276.252	3.609
277.752	3.637
279.252	3.685
280.752	3.742
282.252	3.801
282.335	3.801
283.835	3.876
285.335	3.952
286.7	3.953
288.283	3.941
289.771	3.948
291.426	3.954
292.821	3.984
294.046	4.02
295.546	4.092
297.046	4.126
298.546	4.133
300.046	4.122
301.296	4.11
302.796	4.083
304.296	4.077
305.796	4.089
307.296	4.115
308.545	4.146
310.045	4.177
311.545	4.2
313.045	4.165
313.75	4.057
315.25	3.731
316.75	3.386
318.25	3.08
319.75	2.838
321.25	2.65
322.75	2.476
324.25	2.243
