Uv/Vis Spectrum: 3-Acetylphenanthrene
Formula: C16H12O
CAS: 2039-76-1
Melting point: 72
Instrument: Beckman DU
Origin: INSTITUTE OF ENERGY PROBLEMS OF CHEMICAL PHYSICS, RAS
Wavelength (nm)	Logarithm epsilon
206.063	4.118
206.72	4.08748
207.073	4.1119
208.589	4.10783
211.621	4.10172
212.429	4.09765
213.136	4.09155
213.945	4.08442
214.298	4.08442
215.157	4.07425
215.46	4.07425
217.33	4.07425
217.835	4.0773
218.189	4.08748
218.34	4.08748
218.694	4.09765
218.845	4.10172
219.199	4.10783
219.856	4.12512
220.008	4.12512
220.867	4.14242
221.018	4.14242
221.877	4.1587
222.029	4.1587
222.382	4.16582
222.887	4.17905
223.039	4.17905
223.898	4.20347
224.049	4.20347
224.403	4.21365
225.06	4.22687
225.565	4.2401
225.919	4.25028
226.424	4.26045
227.283	4.28792
227.435	4.28792
227.788	4.30115
227.94	4.30115
228.597	4.32557
228.799	4.32862
229.456	4.35203
229.607	4.35203
230.82	4.38662
231.123	4.38967
231.982	4.4029
232.335	4.41308
233.144	4.42732
234.154	4.44055
235.67	4.46802
236.024	4.47107
236.529	4.4782
236.883	4.48837
237.388	4.49448
238.045	4.50465
238.398	4.50872
238.904	4.51483
239.409	4.5189
240.066	4.52195
241.076	4.52907
242.238	4.53518
242.946	4.53925
244.108	4.5423
244.966	4.54942
245.775	4.55248
246.28	4.5596
246.785	4.5657
247.139	4.5657
247.998	4.57995
248.301	4.57995
248.806	4.59012
249.16	4.59012
249.817	4.6003
250.524	4.61047
252.343	4.61353
252.848	4.6064
253.353	4.60335
254.364	4.58605
255.071	4.57995
255.88	4.5657
256.587	4.5596
256.89	4.55553
257.396	4.54942
258.254	4.53518
258.76	4.53212
259.113	4.52907
259.618	4.52195
260.124	4.51483
260.427	4.51178
260.781	4.50872
261.437	4.49855
261.639	4.49855
262.145	4.48837
262.296	4.48837
262.802	4.4782
263.307	4.46802
263.458	4.46802
263.812	4.45378
264.166	4.44767
264.671	4.43037
264.822	4.43037
265.176	4.41308
265.328	4.41308
265.681	4.3968
265.833	4.39273
266.187	4.3795
266.338	4.3795
266.692	4.3622
266.844	4.35915
267.197	4.34185
267.349	4.3388
267.702	4.3215
267.854	4.31845
268.208	4.30522
268.359	4.30115
268.713	4.28487
268.865	4.2808
269.218	4.26452
269.37	4.26452
269.723	4.24417
269.875	4.24417
270.229	4.22687
270.38	4.22687
270.734	4.20652
270.885	4.20652
271.239	4.18617
271.391	4.18617
271.744	4.16582
271.896	4.16582
272.25	4.14547
272.401	4.14242
272.755	4.12512
272.906	4.12512
273.26	4.10783
273.412	4.10783
273.765	4.08748
273.917	4.08442
274.271	4.06713
274.422	4.06407
274.776	4.04678
274.927	4.04678
275.281	4.0305
275.433	4.02643
275.786	4.01015
275.938	4.01015
276.291	3.99285
276.443	3.99285
276.797	3.97555
277.1	3.96945
277.454	3.95927
278.312	3.94197
278.464	3.94197
278.818	3.93485
279.121	3.9318
279.626	3.92468
280.131	3.91857
281.647	3.9145
284.022	3.9084
285.538	3.90433
286.043	3.89822
286.548	3.8911
286.902	3.88805
287.205	3.88092
287.558	3.88092
288.064	3.8738
288.569	3.8677
289.074	3.86363
289.579	3.86057
291.954	3.85345
293.47	3.86057
296.501	3.86363
297.006	3.87075
297.663	3.87787
298.017	3.88092
298.32	3.88805
298.522	3.88805
299.027	3.89822
299.179	3.89822
299.533	3.9084
299.836	3.9084
300.19	3.91857
300.341	3.91857
300.846	3.92875
301.048	3.92875
301.351	3.93485
301.705	3.93892
302.059	3.94503
302.362	3.9491
302.867	3.95927
303.069	3.95927
308.122	4.02643
308.627	4.0305
309.132	4.0366
309.637	4.04067
310.143	4.04678
310.8	4.05085
311.456	4.0539
312.467	4.06102
313.174	4.06713
317.216	4.0712
318.024	4.06407
318.732	4.06102
319.237	4.0539
319.894	4.05085
320.551	4.04067
321.056	4.0366
321.915	4.02337
322.42	4.01625
322.572	4.01625
322.925	4.01015
323.431	4.00302
323.784	3.99285
324.289	3.98573
324.593	3.97962
327.978	3.9145
328.331	3.90433
328.483	3.90433
328.837	3.89415
329.493	3.88092
329.847	3.8738
330.504	3.85345
330.656	3.85345
331.161	3.83717
331.868	3.82293
332.373	3.80665
333.03	3.7924
333.384	3.77917
333.535	3.77917
334.192	3.75577
334.394	3.75577
335.203	3.7283
335.556	3.72118
336.062	3.7049
336.213	3.7049
336.567	3.69065
336.921	3.68455
337.577	3.66013
337.931	3.65402
338.436	3.63672
338.942	3.62655
339.75	3.59908
340.104	3.59297
340.76	3.56855
340.962	3.56855
341.619	3.5421
341.771	3.53803
342.276	3.52175
342.478	3.51768
342.781	3.51157
343.135	3.49427
343.287	3.49427
343.64	3.48105
343.792	3.48105
344.297	3.46375
344.651	3.45663
345.004	3.4434
345.156	3.44035
345.51	3.4261
345.661	3.42305
346.015	3.40575
346.166	3.4027
346.52	3.3854
346.672	3.38235
347.025	3.362
347.177	3.362
347.531	3.34165
347.682	3.3386
348.036	3.31825
348.187	3.31825
348.541	3.29383
348.693	3.29383
349.046	3.27348
355.766	3.0364
356.271	3.0191
356.625	3.013
357.282	2.99264
357.635	2.98552
358.646	2.95805
359.151	2.94787
359.808	2.93465
360.313	2.91735
360.465	2.91735
360.97	2.90107
361.172	2.897
361.677	2.88072
361.829	2.88072
362.183	2.86342
362.334	2.86037
362.688	2.84307
362.839	2.84307
363.193	2.81967
363.345	2.81967
363.698	2.78914
363.85	2.78914
364.204	2.74844
364.355	2.74437
364.709	2.70062
364.86	2.69757
365.214	2.6528
365.366	2.64975
365.719	2.60193
365.871	2.59887
366.225	2.55512
366.376	2.55105
366.73	2.51035
366.881	2.5073
367.235	2.46354
367.387	2.45947
367.74	2.41267
367.892	2.4086
368.245	2.3679
368.397	2.36485
368.751	2.31703
368.902	2.31397
369.256	2.26615
369.408	2.2631
369.761	2.2224
369.913	2.21935
370.267	2.17457
370.418	2.17152
370.772	2.13082
370.923	2.12777
371.277	2.07689
371.429	2.07282
371.782	2.03619
371.934	2.03213
372.288	1.98532
372.439	1.98125
372.793	1.94055
372.944	1.9375
373.298	1.8968
373.45	1.89375
373.803	1.85304
373.955	1.85304
374.308	1.80522
