Uv/Vis Spectrum: Benzene, 2-ethenyl-1,3-dimethyl-
Formula: C10H12
CAS: 2039-90-9
Instrument: Beckman DB
Origin: INSTITUTE OF ENERGY PROBLEMS OF CHEMICAL PHYSICS, RAS
Wavelength (nm)	Logarithm epsilon
212.5	4.299
212.64	4.294
213.03	4.277
213.62	4.254
214.21	4.23
214.8	4.203
215.4	4.179
216	4.149
216.61	4.126
217.22	4.096
217.83	4.07
218.44	4.041
219.06	4.013
219.68	3.983
220.31	3.955
220.94	3.928
221.57	3.898
222.21	3.876
222.85	3.853
223.49	3.836
224.14	3.821
224.79	3.808
225.45	3.804
226.11	3.802
226.77	3.797
227.43	3.797
228.11	3.8
228.78	3.802
229.46	3.804
230.1	3.807
230.74	3.812
231.52	3.817
232.21	3.821
232.76	3.823
233.62	3.825
234.32	3.827
235.04	3.827
235.75	3.829
236.47	3.829
237.21	3.828
237.95	3.825
238.66	3.821
239.4	3.817
240.14	3.808
240.89	3.8
241.64	3.789
242.4	3.778
243.16	3.765
243.93	3.755
244.7	3.742
245.47	3.728
246.25	3.71
247.03	3.693
247.85	3.677
248.54	3.661
249.32	3.643
250.24	3.623
251.06	3.599
251.87	3.578
252.7	3.554
253.52	3.525
254.36	3.497
255.2	3.463
256.04	3.431
256.89	3.392
257.75	3.352
258.61	3.309
259.48	3.264
260.35	3.215
261.23	3.164
262.11	3.107
263.01	3.047
263.9	2.981
264.81	2.91
265.72	2.849
266.63	2.795
267.55	2.757
268.48	2.727
269.42	2.706
270.36	2.693
271.31	2.678
272.26	2.663
273.22	2.646
274.19	2.631
275.17	2.614
276.15	2.606
277.14	2.601
278.14	2.582
279.14	2.552
280.15	2.51
281.17	2.463
282.19	2.414
283.23	2.358
284.27	2.307
285.32	2.252
286.37	2.2
287.44	2.154
288.51	2.1
289.59	2.043
290.68	1.974
291.77	1.919
292.88	1.859
293.99	1.8
295.11	1.744
