Uv/Vis Spectrum: p-(Dimethylamino)styrene
Formula: C10H13N
CAS: 2039-80-7
Boiling point: 97/ 2.5 mm
Instrument: Unicam SP 700
Origin: INSTITUTE OF ENERGY PROBLEMS OF CHEMICAL PHYSICS, RAS
Wavelength (nm)	Logarithm epsilon
197.62	4.361
197.71	4.361
197.79	4.361
197.88	4.359
197.96	4.359
198.05	4.359
198.13	4.357
198.22	4.357
198.3	4.357
198.39	4.355
198.47	4.355
198.56	4.355
198.65	4.352
198.73	4.352
198.82	4.352
198.9	4.348
199.25	4.346
199.59	4.342
199.94	4.34
200.28	4.337
200.63	4.335
200.98	4.331
201.33	4.327
201.68	4.325
202.04	4.318
202.39	4.314
202.75	4.308
203.1	4.303
203.46	4.297
203.82	4.288
204.18	4.284
204.54	4.276
204.91	4.265
205.27	4.259
205.64	4.25
206.01	4.242
206.37	4.229
206.74	4.22
207.12	4.21
207.49	4.197
207.86	4.182
208.24	4.171
208.61	4.159
208.99	4.146
209.37	4.131
209.75	4.118
210.13	4.105
210.52	4.086
210.9	4.075
211.29	4.063
211.68	4.046
212.06	4.035
212.46	4.022
212.85	4.009
213.24	4.003
213.64	3.992
214.03	3.984
214.43	3.98
214.83	3.973
215.23	3.969
215.63	3.965
216.04	3.963
216.44	3.96
216.85	3.96
217.26	3.963
217.67	3.963
218.08	3.965
218.49	3.967
218.91	3.967
219.32	3.969
219.74	3.969
220.16	3.969
220.58	3.969
221	3.969
221.43	3.971
221.85	3.971
222.28	3.971
222.71	3.971
223.14	3.971
223.57	3.969
224.01	3.969
224.44	3.969
224.88	3.967
225.32	3.96
225.76	3.958
226.2	3.954
226.65	3.948
227.09	3.943
227.54	3.937
227.99	3.928
228.44	3.92
228.9	3.914
229.35	3.901
229.81	3.888
230.27	3.877
230.73	3.865
231.19	3.852
231.65	3.835
232.12	3.82
232.59	3.803
233.06	3.784
233.53	3.764
234	3.743
234.48	3.724
234.96	3.701
235.43	3.677
235.92	3.66
236.4	3.652
236.88	3.634
237.37	3.609
237.86	3.583
238.35	3.56
238.85	3.532
239.34	3.511
239.84	3.49
240.34	3.464
240.84	3.449
241.35	3.439
241.85	3.43
242.33	3.423
242.87	3.419
243.38	3.417
243.8	3.416
244.41	3.415
244.9	3.415
245.45	3.417
245.97	3.42
246.54	3.423
247.05	3.426
247.55	3.43
248.12	3.434
248.62	3.438
249.16	3.443
249.72	3.449
250.24	3.456
250.79	3.461
251.33	3.469
251.86	3.476
252.43	3.484
252.99	3.492
253.54	3.5
254.1	3.511
254.66	3.522
255.23	3.53
255.79	3.541
256.36	3.551
256.93	3.562
257.51	3.573
258.08	3.585
258.66	3.596
259.24	3.609
259.83	3.62
260.41	3.634
261	3.645
261.59	3.656
262.19	3.666
262.79	3.677
263.39	3.69
263.99	3.701
264.59	3.713
265.2	3.726
265.81	3.739
266.43	3.756
267.04	3.769
267.66	3.784
268.29	3.799
268.91	3.813
269.54	3.828
270.17	3.843
270.8	3.86
271.44	3.875
272.08	3.892
272.72	3.905
273.37	3.924
274.02	3.937
274.67	3.956
275.33	3.973
275.99	3.988
276.65	4.003
277.31	4.02
277.98	4.039
278.65	4.054
279.33	4.071
280.01	4.084
280.69	4.101
281.37	4.114
282.06	4.129
282.75	4.144
283.45	4.156
284.14	4.171
284.85	4.186
285.55	4.197
286.26	4.21
286.97	4.222
287.69	4.235
288.41	4.244
289.13	4.252
289.86	4.261
290.59	4.269
291.32	4.278
292.06	4.282
292.8	4.288
293.54	4.293
294.29	4.295
295.04	4.299
295.8	4.301
296.56	4.301
297.33	4.301
298.09	4.301
298.87	4.301
299.64	4.299
300.42	4.291
301.21	4.286
302	4.278
302.79	4.269
303.58	4.259
304.39	4.246
305.19	4.233
306	4.216
306.81	4.197
307.63	4.18
308.45	4.161
309.28	4.142
310.11	4.122
310.95	4.103
311.79	4.08
312.63	4.061
313.48	4.046
314.34	4.029
315.2	4.009
316.06	3.995
316.93	3.975
317.8	3.956
318.68	3.941
319.56	3.922
320.45	3.905
321.34	3.89
322.24	3.871
323.14	3.858
324.05	3.839
324.96	3.82
325.88	3.803
326.8	3.786
327.73	3.767
328.67	3.747
329.61	3.726
330.55	3.707
331.5	3.686
332.45	3.666
333.42	3.643
334.38	3.62
335.35	3.594
336.33	3.558
337.32	3.537
338.3	3.498
339.3	3.443
340.07	3.387
340.86	3.339
342.18	3.249
343.33	3.178
344.36	3.106
345.39	3.015
346.43	2.921
347.47	2.819
348.52	2.727
349.58	2.646
350.64	2.563
351.71	2.471
352.79	2.386
353.87	2.301
354.96	2.194
356.05	2.107
