Uv/Vis Spectrum: 4H-Cyclopenta(def)phenanthrene
Formula: C15H10
CAS: 203-64-5
Melting point: 122.5
Instrument: Zeiss PMQ II
Origin: INSTITUTE OF ENERGY PROBLEMS OF CHEMICAL PHYSICS, RAS
Wavelength (nm)	Logarithm epsilon
182.39	4.003
182.97	4.037
183.41	4.074
184.15	4.108
184.81	4.142
185.63	4.172
186.46	4.202
187.37	4.23
188.36	4.253
189.76	4.255
190.78	4.232
191.58	4.2
192.22	4.166
192.7	4.131
193.19	4.097
193.59	4.061
194.08	4.022
194.41	3.986
194.82	3.947
195.15	3.911
195.57	3.875
196.07	3.84
196.65	3.806
197.92	3.795
198.78	3.825
199.38	3.862
200.07	3.896
200.59	3.935
201.12	3.973
201.74	4.009
202.27	4.048
202.89	4.084
203.52	4.119
204.33	4.151
205.34	4.183
206.35	4.213
207.46	4.238
208.78	4.26
210.31	4.281
211.95	4.294
213.33	4.27
214.52	4.245
215.72	4.241
216.4	4.246
216.86	4.253
217.26	4.255
217.43	4.255
217.67	4.251
217.85	4.248
218.07	4.246
218.28	4.249
218.49	4.258
218.7	4.264
218.91	4.27
219.1	4.274
219.35	4.278
219.53	4.283
219.74	4.294
219.95	4.305
220.16	4.318
220.38	4.326
220.58	4.333
220.76	4.335
220.97	4.329
221.22	4.32
221.43	4.316
221.64	4.316
221.92	4.318
222.13	4.322
222.29	4.328
222.51	4.347
222.72	4.371
222.94	4.386
223.11	4.396
223.33	4.406
223.58	4.411
223.8	4.412
224.02	4.407
224.24	4.39
224.46	4.358
224.68	4.335
224.9	4.32
225.07	4.31
225.37	4.304
225.66	4.304
225.92	4.308
226.11	4.315
226.33	4.341
226.56	4.358
226.75	4.363
226.99	4.349
227.23	4.326
227.45	4.3
227.66	4.281
227.82	4.264
228.14	4.238
228.41	4.218
228.7	4.168
228.83	4.13
228.87	4.108
228.92	4.084
228.99	4.065
229.07	4.035
229.1	4.014
229.15	3.997
229.38	3.965
229.61	3.935
229.8	3.92
230.01	3.91
230.23	3.905
230.52	3.904
230.87	3.909
231.28	3.922
231.69	3.939
232.27	3.977
232.86	4.016
233.57	4.054
234.28	4.091
235	4.125
235.72	4.163
236.45	4.202
236.81	4.241
237.42	4.279
238.16	4.318
239.03	4.354
239.9	4.388
240.65	4.424
241.66	4.459
242.68	4.493
243.45	4.531
244.22	4.57
245.4	4.602
247.11	4.63
248.71	4.658
250.88	4.675
252.14	4.696
252.81	4.703
253.09	4.705
253.36	4.707
253.64	4.709
253.92	4.711
254.2	4.709
254.49	4.703
254.77	4.698
255.05	4.688
255.33	4.673
255.62	4.656
255.9	4.636
256.18	4.604
256.47	4.568
256.76	4.546
257.04	4.508
257.33	4.482
257.62	4.452
257.91	4.429
258.2	4.395
258.49	4.367
258.78	4.32
259.07	4.303
259.36	4.281
259.65	4.266
259.95	4.255
260.24	4.251
260.53	4.243
260.83	4.232
261.13	4.23
261.42	4.226
261.72	4.226
262.02	4.228
262.32	4.243
262.62	4.243
262.91	4.241
263.22	4.238
263.52	4.23
263.82	4.211
264.12	4.196
264.43	4.181
264.73	4.161
265.03	4.142
265.34	4.127
265.65	4.108
265.95	4.095
266.26	4.076
266.57	4.059
266.88	4.046
267.19	4.033
267.5	4.02
267.81	3.999
268.12	3.994
268.43	3.984
268.75	3.973
269.06	3.962
269.38	3.952
269.69	3.943
270.01	3.932
270.33	3.92
270.64	3.909
270.96	3.9
271.28	3.89
271.6	3.885
271.92	3.877
272.24	3.873
272.57	3.868
272.89	3.862
273.21	3.855
273.54	3.843
273.86	3.828
274.19	3.804
274.52	3.787
274.85	3.781
275.21	3.798
275.5	3.847
275.79	3.872
276.06	3.885
276.49	3.902
276.83	3.909
277.14	3.912
277.5	3.911
277.83	3.89
278.17	3.873
278.5	3.855
278.84	3.845
279.18	3.834
279.52	3.823
279.86	3.815
280.2	3.806
280.54	3.8
280.88	3.795
281.22	3.789
281.55	3.785
281.91	3.781
282.26	3.781
282.64	3.782
282.95	3.787
283.3	3.795
283.65	3.802
283.97	3.813
284.35	3.825
284.7	3.838
285.06	3.849
285.41	3.86
285.76	3.873
286.12	3.947
286.47	3.982
286.83	4.012
287.13	4.026
287.41	4.044
287.8	4.058
288.19	4.062
288.61	4.05
288.97	4.031
289.33	3.998
289.72	3.965
290.09	3.925
290.31	3.874
290.82	3.838
291.19	3.828
291.55	3.823
291.92	3.813
292.29	3.8
292.67	3.781
293.04	3.759
293.33	3.748
293.79	3.736
294.19	3.733
294.54	3.738
294.92	3.753
295.29	3.781
295.67	3.802
296.05	3.834
296.42	3.932
296.82	3.945
297.18	3.948
297.59	3.95
297.97	3.947
298.36	3.945
298.68	3.951
298.82	3.986
298.91	4.044
299.02	4.077
299.24	4.115
299.61	4.147
300.16	4.172
300.67	4.174
301.06	4.161
301.45	4.136
301.67	4.108
302.06	4.06
302.48	3.983
302.93	3.909
303.47	3.795
303.82	3.693
304.1	3.594
304.49	3.481
304.85	3.372
305.27	3.251
305.63	3.133
306.05	2.972
306.58	2.832
307.19	2.704
307.94	2.57
308.35	2.499
308.76	2.456
309.18	2.448
309.59	2.439
310.01	2.439
310.43	2.446
310.85	2.454
311.24	2.502
311.69	2.535
312.13	2.566
312.54	2.595
312.96	2.6
313.39	2.602
313.81	2.602
314.2	2.592
314.67	2.578
315.1	2.557
315.43	2.543
315.77	2.525
316.16	2.504
316.62	2.488
317	2.472
317.49	2.452
317.93	2.443
318.37	2.422
318.81	2.405
319.25	2.401
319.7	2.394
320.14	2.392
320.59	2.392
321.04	2.418
321.48	2.424
321.93	2.424
322.38	2.42
322.84	2.411
323.29	2.398
323.57	2.354
324.2	2.336
324.66	2.336
325.12	2.339
325.58	2.347
326.04	2.381
326.44	2.472
326.95	2.583
327.35	2.664
327.61	2.713
327.9	2.74
328.51	2.751
329.09	2.751
329.57	2.743
330.01	2.715
330.48	2.674
330.96	2.634
331.44	2.593
331.91	2.552
332.39	2.529
332.63	2.514
333.11	2.508
333.6	2.501
333.73	2.489
333.88	2.44
334.19	2.367
334.43	2.299
334.72	2.212
334.94	2.142
335.3	2.08
335.87	2.071
336.77	2.099
337.26	2.155
337.76	2.238
338.16	2.258
338.72	2.265
339.25	2.245
339.69	2.208
340.25	2.125
340.75	2.037
341.07	1.964
341.38	1.899
341.7	1.845
341.91	1.81
342.28	1.767
342.65	1.76
342.94	1.77
