Uv/Vis Spectrum: tert-Pentylbenzene
Formula: C11H16
CAS: 2049-95-8
Boiling point: 192.4
Instrument: unknown
Origin: INSTITUTE OF ENERGY PROBLEMS OF CHEMICAL PHYSICS, RAS
Wavelength (nm)	Logarithm epsilon
224.6	1.736
224.64	1.733
224.69	1.729
224.9	1.671
225.19	1.621
225.49	1.589
225.78	1.539
226.08	1.495
226.38	1.458
226.67	1.411
226.97	1.374
227.26	1.325
227.56	1.298
227.85	1.26
228.02	1.248
228.3	1.234
228.61	1.223
229.04	1.217
229.33	1.217
229.63	1.217
229.96	1.22
230.22	1.228
230.51	1.239
230.87	1.257
231.15	1.272
231.4	1.289
231.68	1.303
231.99	1.325
232.34	1.34
232.62	1.355
232.87	1.367
233.17	1.382
233.47	1.398
233.76	1.411
234.06	1.425
234.36	1.439
234.65	1.458
234.97	1.476
235.24	1.495
235.54	1.512
235.81	1.528
236.13	1.545
236.44	1.559
236.72	1.57
236.97	1.579
237.31	1.585
237.63	1.593
237.9	1.603
238.16	1.611
238.47	1.621
238.72	1.631
239	1.647
239.38	1.671
239.68	1.69
239.97	1.708
240.27	1.733
240.56	1.749
240.86	1.765
241.15	1.778
241.45	1.796
241.75	1.81
242.04	1.821
242.34	1.824
242.63	1.832
242.93	1.835
243.22	1.838
243.52	1.84
243.81	1.843
244.11	1.846
244.41	1.856
244.7	1.881
245	1.897
245.29	1.918
245.59	1.939
245.88	1.958
246.18	1.976
246.47	1.991
246.77	2.006
247.07	2.016
247.36	2.023
247.66	2.03
247.95	2.032
248.25	2.025
248.54	2.016
248.84	2.013
249.13	2.007
249.43	2.011
249.73	2.018
250.02	2.028
250.32	2.042
250.61	2.06
250.8	2.072
250.93	2.084
251.05	2.094
251.17	2.103
251.25	2.11
251.33	2.117
251.41	2.124
251.58	2.135
251.75	2.145
251.92	2.162
252.09	2.176
252.26	2.186
252.43	2.191
252.6	2.19
252.77	2.182
252.93	2.172
253.1	2.166
253.27	2.159
253.44	2.158
253.61	2.153
253.78	2.152
253.95	2.149
254.12	2.148
254.29	2.146
254.45	2.143
254.62	2.141
254.79	2.136
254.96	2.128
255.13	2.118
255.3	2.105
255.47	2.097
255.64	2.091
255.81	2.089
255.97	2.091
256.14	2.097
256.31	2.11
256.48	2.139
256.65	2.167
256.82	2.191
256.99	2.21
257.16	2.233
257.33	2.251
257.49	2.264
257.66	2.278
257.83	2.284
258	2.286
258.17	2.282
258.34	2.276
258.51	2.267
258.68	2.262
258.85	2.256
259.01	2.246
259.18	2.241
259.35	2.233
259.52	2.225
259.69	2.216
259.86	2.211
260.03	2.204
260.2	2.199
260.37	2.196
260.53	2.197
260.7	2.2
260.87	2.2
261.04	2.191
261.21	2.179
261.38	2.162
261.55	2.15
261.72	2.13
261.89	2.107
262.05	2.085
262.11	2.077
262.27	2.061
262.49	2.039
262.73	2.02
262.9	2.009
263.07	2.007
263.24	2.022
263.44	2.041
263.57	2.063
263.74	2.097
263.91	2.121
264.08	2.141
264.25	2.156
264.42	2.166
264.59	2.164
264.76	2.157
264.93	2.141
265.1	2.124
265.26	2.102
265.43	2.086
265.6	2.065
265.77	2.05
265.88	2.039
266	2.02
266.17	2.002
266.42	1.982
266.62	1.97
266.78	1.966
266.95	1.976
267.12	1.989
267.29	2.007
267.46	2.02
267.63	2.025
267.8	2.028
268.01	2.027
268.14	2.018
268.3	1.996
268.47	1.956
268.64	1.902
268.81	1.861
268.98	1.821
269.15	1.768
269.32	1.719
269.49	1.679
269.66	1.626
269.82	1.575
269.99	1.534
270.16	1.483
270.33	1.452
270.5	1.418
