Uv/Vis Spectrum: 2-Iodobiphenyl
Formula: C12H9I
CAS: 20442-79-9
Melting point: 26.5
Boiling point: 188(16)
Instrument: n.i.g.
Origin: INSTITUTE OF ENERGY PROBLEMS OF CHEMICAL PHYSICS, RAS
Wavelength (nm)	Logarithm epsilon
214.429	4.36446
214.659	4.35663
214.774	4.35273
214.938	4.34847
215.035	4.34541
215.132	4.34324
215.181	4.34221
215.389	4.33558
215.59	4.32814
215.769	4.32365
215.851	4.32147
215.949	4.31768
215.999	4.31578
216.091	4.31429
216.128	4.3136
216.434	4.30448
216.536	4.30081
216.812	4.29375
216.943	4.29025
217.122	4.28371
217.205	4.28046
217.302	4.27884
217.35	4.27809
217.984	4.26036
218.294	4.25129
218.386	4.24955
218.424	4.24875
218.516	4.24605
218.554	4.24476
218.743	4.24106
218.829	4.23928
219.019	4.23438
219.105	4.23191
219.197	4.23042
219.234	4.22975
219.327	4.22693
219.365	4.22558
219.689	4.21901
219.85	4.21576
220.027	4.21388
220.108	4.21302
220.463	4.20817
220.641	4.20572
220.865	4.20473
220.978	4.20433
221.646	4.20437
221.972	4.20439
222.42	4.20634
222.644	4.20724
222.771	4.20829
222.835	4.20882
223.15	4.21075
223.299	4.21163
223.709	4.21506
223.906	4.21666
224.607	4.22434
224.958	4.22805
226.002	4.23748
226.219	4.23965
226.406	4.24064
226.491	4.24113
226.671	4.24276
226.81	4.24373
227.221	4.24563
227.418	4.24649
227.818	4.24742
228.011	4.24779
228.635	4.24782
228.94	4.24784
229.437	4.24659
229.679	4.24596
229.952	4.24372
230.081	4.2426
230.435	4.23905
230.613	4.23727
230.802	4.23449
230.887	4.23317
231.016	4.2317
231.081	4.23103
231.27	4.22822
231.355	4.22688
231.447	4.22593
231.484	4.22555
231.576	4.22371
231.614	4.22286
231.673	4.22236
231.694	4.22219
232.049	4.21646
232.227	4.21367
232.319	4.21165
232.357	4.21073
232.76	4.20368
232.955	4.19985
233.144	4.19683
233.229	4.19539
233.504	4.1893
233.634	4.18632
233.726	4.18527
233.763	4.18485
234.135	4.1765
234.313	4.17235
234.405	4.17127
234.442	4.17084
234.891	4.16012
235.106	4.15477
235.203	4.15359
235.251	4.153
235.786	4.13864
236.061	4.13107
236.811	4.1106
237.001	4.10533
237.179	4.09916
237.26	4.09617
237.357	4.09414
237.406	4.09323
237.583	4.08752
237.665	4.08474
237.758	4.0796
237.796	4.07701
237.893	4.07614
237.941	4.07584
238.034	4.06989
238.072	4.06699
238.164	4.06628
238.201	4.06603
238.297	4.06458
238.345	4.06385
238.794	4.05009
239.009	4.04319
239.106	4.04115
239.155	4.04012
239.247	4.03574
239.285	4.03365
239.377	4.03289
239.413	4.03262
239.506	4.03052
239.543	4.02947
239.985	4.01565
240.222	4.0079
240.411	4.00346
240.497	4.00122
240.589	3.99792
240.626	3.99642
240.718	3.9948
240.755	3.99415
240.9	3.98848
240.966	3.98579
241.058	3.98404
241.095	3.98317
241.402	3.97308
241.839	3.95941
241.931	3.95765
241.968	3.95694
242.06	3.95328
242.097	3.95162
242.194	3.94982
242.242	3.9491
242.334	3.94562
242.372	3.94401
242.464	3.94208
242.501	3.94112
242.69	3.93472
242.775	3.93167
242.952	3.92704
243.034	3.9247
243.131	3.92101
243.179	3.91931
243.271	3.91728
243.308	3.91625
243.4	3.91249
243.438	3.91075
243.626	3.9067
243.712	3.90485
243.804	3.90099
243.841	3.8992
243.985	3.89602
244.05	3.89458
244.143	3.89062
244.18	3.88879
244.453	3.88259
244.583	3.87963
244.985	3.86799
245.18	3.86222
245.549	3.85365
245.727	3.8493
246.082	3.83926
246.259	3.83433
246.526	3.82879
246.726	3.82393
246.914	3.82141
246.999	3.82014
247.091	3.81771
247.128	3.81673
247.316	3.81429
247.401	3.81331
247.493	3.81071
247.53	3.8094
247.707	3.80692
247.787	3.80592
247.884	3.80341
247.932	3.8024
248.378	3.79484
248.592	3.79122
248.945	3.78589
249.122	3.78347
249.701	3.7732
249.99	3.76798
250.215	3.76526
250.328	3.76416
250.472	3.75981
250.537	3.75783
250.713	3.75503
250.794	3.75391
250.886	3.75093
250.923	3.74943
251.111	3.74658
251.196	3.74543
251.288	3.74254
251.325	3.74137
251.513	3.73847
251.598	3.7373
252.085	3.72696
252.338	3.72217
252.43	3.71896
252.467	3.71735
252.917	3.70814
253.142	3.70372
253.271	3.69925
253.336	3.697
253.608	3.69036
253.738	3.68732
253.926	3.68403
254.011	3.6827
254.188	3.67582
254.269	3.67267
254.457	3.66927
254.542	3.6679
254.823	3.65869
255.202	3.64754
255.346	3.64183
255.411	3.63924
255.587	3.63556
255.668	3.63408
255.857	3.62687
255.942	3.62352
256.13	3.61951
256.215	3.61749
256.307	3.6136
256.344	3.61203
256.532	3.60812
256.617	3.60654
256.838	3.59669
256.94	3.59169
257.128	3.58737
257.213	3.5852
257.389	3.57712
257.471	3.57335
257.743	3.56451
257.873	3.56044
258.017	3.55422
258.082	3.55107
258.27	3.54657
258.355	3.54474
258.532	3.53526
258.613	3.5309
258.801	3.52618
258.886	3.52427
259.204	3.50713
259.354	3.4983
259.53	3.49321
259.611	3.49115
260.024	3.47294
260.222	3.46407
260.41	3.45856
260.495	3.45633
260.753	3.4447
260.882	3.43934
261.392	3.42055
261.557	3.41311
261.782	3.40693
261.894	3.40442
262.151	3.39129
262.28	3.38522
262.693	3.37244
262.89	3.36644
263.244	3.35213
263.421	3.3455
264.112	3.32213
264.417	3.31284
265.077	3.29016
265.429	3.27754
265.745	3.26911
265.894	3.26568
266.07	3.25694
266.151	3.25338
267.451	3.21795
268.094	3.19909
268.672	3.17802
268.961	3.16815
270.404	3.12826
271.841	3.08521
272.555	3.06262
274.7	3.01604
275.283	2.99919
275.507	2.98295
275.62	2.97626
277.128	2.9414
277.882	2.92474
279.352	2.89865
281.346	2.83595
281.861	2.81967
282.881	2.78956
285.083	2.72466
285.933	2.71006
287.617	2.68449
288.109	2.66777
289.076	2.63805
