Uv/Vis Spectrum: 2(1H)-Pyridinethione, 1-methyl-
Formula: C6H7NS
CAS: 2044-27-1
Melting point: 88-90
Instrument: Cary Model 14
Origin: INSTITUTE OF ENERGY PROBLEMS OF CHEMICAL PHYSICS, RAS
Wavelength (nm)	Logarithm epsilon
208.19	3.997
208.53	3.994
209.9	3.946
210.75	3.926
211.6	3.906
212.46	3.882
213.31	3.862
214.16	3.831
215.02	3.801
215.87	3.777
216.72	3.757
217.58	3.74
219.28	3.707
220.14	3.693
220.99	3.679
221.84	3.669
222.7	3.659
223.55	3.649
224.4	3.639
225.26	3.632
226.11	3.619
226.96	3.615
227.82	3.605
228.67	3.602
229.52	3.598
230.38	3.588
231.23	3.582
232.08	3.571
232.94	3.571
233.79	3.565
234.64	3.555
235.5	3.551
236.35	3.544
237.2	3.541
238.06	3.541
238.91	3.541
239.76	3.548
240.62	3.555
241.47	3.565
242.32	3.571
243.17	3.588
244.03	3.602
244.88	3.622
245.73	3.642
246.59	3.663
247.44	3.683
248.29	3.703
249.15	3.727
250	3.744
250.85	3.764
251.71	3.777
252.56	3.801
253.41	3.821
254.27	3.835
255.12	3.855
255.97	3.872
256.83	3.892
257.68	3.909
258.53	3.929
259.39	3.946
260.24	3.963
261.09	3.98
261.95	3.994
262.8	4.01
263.65	4.027
264.51	4.041
265.36	4.058
266.21	4.075
267.07	4.092
267.92	4.105
268.77	4.115
269.63	4.122
270.48	4.135
271.33	4.139
272.19	4.139
273.04	4.139
273.89	4.135
274.75	4.132
275.6	4.122
276.45	4.108
277.31	4.095
278.16	4.078
279.01	4.058
279.86	4.041
280.72	4.014
281.57	3.983
282.42	3.963
283.28	3.933
284.13	3.906
284.98	3.872
285.84	3.852
286.69	3.821
287.54	3.791
288.4	3.767
289.25	3.74
290.1	3.707
290.96	3.679
291.81	3.656
292.66	3.625
293.52	3.598
294.37	3.575
295.22	3.551
296.08	3.534
296.93	3.524
297.78	3.514
298.64	3.511
299.49	3.504
300.34	3.507
301.2	3.511
302.05	3.514
302.9	3.521
303.76	3.531
304.61	3.544
305.46	3.548
306.32	3.561
307.17	3.575
308.02	3.588
308.88	3.598
309.73	3.612
310.58	3.625
311.44	3.639
312.29	3.649
313.14	3.663
314	3.673
314.85	3.686
315.7	3.7
316.55	3.71
317.41	3.723
318.26	3.734
319.11	3.74
319.97	3.75
320.82	3.764
321.67	3.771
322.53	3.784
323.38	3.794
324.23	3.804
325.09	3.815
325.94	3.828
326.79	3.835
327.65	3.845
328.5	3.855
329.35	3.862
330.21	3.869
331.06	3.879
331.91	3.882
332.77	3.892
333.62	3.896
334.47	3.899
335.33	3.902
336.18	3.906
337.03	3.906
337.89	3.906
338.74	3.906
339.59	3.902
340.45	3.899
341.3	3.899
342.15	3.896
343.01	3.892
343.86	3.886
344.71	3.882
345.57	3.875
346.42	3.865
347.27	3.858
348.13	3.848
348.98	3.845
349.83	3.831
350.69	3.818
351.54	3.811
352.39	3.798
353.24	3.784
354.1	3.767
354.95	3.757
355.8	3.744
356.66	3.73
357.51	3.713
358.36	3.696
359.22	3.679
360.07	3.656
360.92	3.636
361.78	3.619
362.63	3.592
363.48	3.571
364.34	3.548
365.19	3.524
366.04	3.497
366.9	3.473
367.75	3.443
368.6	3.416
369.46	3.389
370.31	3.362
371.16	3.332
372.02	3.298
372.87	3.267
373.72	3.234
374.58	3.2
375.43	3.166
376.28	3.136
377.14	3.102
377.99	3.068
378.84	3.038
379.7	3.004
380.55	2.974
381.4	2.94
382.26	2.906
383.11	2.876
383.96	2.842
384.82	2.812
385.67	2.778
386.52	2.741
387.38	2.703
388.23	2.666
389.08	2.629
392.49	2.521
393.35	2.487
394.2	2.454
395.05	2.413
395.91	2.379
396.76	2.342
