Uv/Vis Spectrum: Benzenamine, N-methyl-2,4-dinitro-
Formula: C7H7N3O4
CAS: 2044-88-4
Instrument: n.i.g.
Origin: INSTITUTE OF ENERGY PROBLEMS OF CHEMICAL PHYSICS, RAS
Wavelength (nm)	Logarithm epsilon
312.685	3.72717
313.074	3.73961
313.106	3.75005
313.876	3.75621
314.01	3.76302
314.211	3.7678
314.574	3.77923
314.609	3.78364
314.629	3.77282
314.629	3.77282
314.764	3.78985
315.533	3.79664
315.6	3.80065
315.668	3.80463
315.736	3.80857
315.736	3.80857
316.177	3.82485
316.234	3.8173
316.79	3.83047
316.79	3.83047
317.298	3.84278
317.781	3.85426
318.04	3.86566
318.04	3.86566
318.633	3.86987
318.793	3.87863
318.793	3.87863
318.802	3.87331
319.29	3.8849
319.525	3.89094
319.682	3.89741
320.302	3.9018
320.592	3.91079
320.986	3.91923
321.336	3.92777
321.854	3.93703
322.103	3.93941
322.357	3.94179
322.616	3.94415
322.616	3.94415
322.689	3.94939
322.862	3.95336
322.955	3.96407
323.287	3.95763
323.31	3.96623
323.669	3.96834
324.034	3.97043
324.034	3.97043
324.055	3.97595
324.222	3.98017
324.649	3.99048
324.703	3.98794
324.777	3.98418
324.777	3.98418
324.826	3.9937
324.826	3.9937
325.438	3.99615
325.58	4.00274
325.58	4.00274
325.582	3.99908
325.971	4.0068
326.171	4.01027
326.251	4.01454
327.006	4.02316
327.172	4.02628
327.345	4.02822
327.673	4.03061
327.673	4.03061
327.772	4.03563
327.866	4.03801
328.035	4.03981
328.55	4.04763
328.786	4.04965
329.007	4.05101
329.404	4.05287
329.404	4.05287
329.44	4.05572
329.48	4.05853
329.527	4.06131
329.817	4.06875
330.098	4.06995
330.379	4.07113
330.66	4.07228
330.66	4.07228
330.91	4.07788
331.231	4.0829
331.462	4.08804
331.829	4.09445
332.434	4.09876
332.771	4.10255
332.955	4.10676
332.955	4.10676
333.375	4.10948
333.536	4.11205
333.556	4.11476
334.317	4.12005
334.665	4.12535
335.129	4.13042
335.553	4.1354
335.784	4.14046
335.784	4.14046
336.507	4.14396
336.842	4.1478
337.466	4.15133
337.466	4.15133
337.479	4.15272
337.5	4.15409
337.524	4.15543
337.524	4.15543
338.31	4.15938
338.968	4.16355
339.469	4.16782
339.78	4.17204
339.78	4.17204
340.49	4.1747
340.989	4.17682
341.307	4.17988
341.307	4.17988
341.917	4.18243
342.191	4.18468
342.369	4.18756
342.369	4.18756
342.803	4.18886
343.243	4.19013
343.687	4.19138
343.687	4.19138
344.074	4.1946
344.678	4.19762
345.469	4.20027
346.419	4.20235
347.5	4.20369
348.681	4.2041
349.933	4.20339
349.933	4.20339
350.089	4.20156
350.379	4.20038
350.973	4.19888
350.973	4.19888
351.314	4.1959
351.695	4.19356
352.637	4.19238
352.637	4.19238
352.729	4.18974
352.99	4.18712
353.749	4.18508
353.749	4.18508
353.861	4.18352
353.972	4.18194
354.084	4.18034
354.084	4.18034
354.497	4.17988
354.781	4.17977
355.109	4.17924
355.181	4.17995
355.181	4.17995
355.197	4.17597
355.253	4.18064
355.329	4.18131
355.412	4.18197
355.433	4.17373
356.239	4.17104
356.239	4.17104
356.333	4.16815
356.573	4.1657
357.423	4.16405
357.423	4.16405
357.637	4.16198
357.69	4.15742
357.69	4.15742
357.694	4.15994
358.42	4.15462
358.784	4.15165
359.049	4.14757
359.049	4.14757
359.231	4.14734
359.416	4.1471
359.607	4.14684
359.607	4.14684
359.608	4.14654
359.61	4.14622
359.611	4.14589
360.251	4.13947
360.536	4.13716
360.996	4.13274
361.538	4.12841
361.875	4.12276
362.416	4.11861
362.868	4.11349
363.172	4.10858
363.66	4.10215
364.155	4.09718
364.548	4.09081
364.815	4.08504
364.815	4.08504
365.272	4.08279
365.301	4.0788
365.301	4.0788
365.327	4.07623
365.405	4.07919
365.478	4.08146
365.491	4.07404
365.509	4.07957
365.613	4.07992
365.613	4.07992
365.956	4.07158
365.956	4.07158
366.09	4.06869
366.23	4.06576
366.375	4.06279
366.375	4.06279
367.185	4.06009
367.198	4.05497
367.737	4.04957
367.737	4.04957
367.923	4.04757
368.072	4.04486
368.31	4.03905
368.31	4.03905
369.11	4.03464
369.418	4.02943
369.603	4.02313
369.603	4.02313
370.211	4.01981
370.518	4.01535
370.66	4.01061
370.66	4.01061
371.224	4.00819
371.489	4.00681
371.68	4.00526
371.942	3.99741
372.473	3.99051
373.147	3.98277
373.959	3.97513
374.901	3.96861
374.901	3.96861
375.015	3.96495
375.13	3.96122
375.245	3.95744
375.245	3.95744
375.745	3.95333
376.145	3.94922
376.448	3.94406
377.388	3.94018
377.611	3.93481
377.834	3.92934
378.057	3.92378
378.057	3.92378
378.613	3.91957
379.022	3.91509
379.41	3.90965
379.41	3.90965
379.918	3.90618
380.329	3.90402
380.576	3.89688
380.673	3.90166
380.673	3.90166
380.779	3.89392
381.478	3.89076
381.478	3.89076
381.955	3.88402
382.479	3.87988
383.463	3.8743
385.357	3.86513
385.615	3.86395
385.877	3.86272
386.145	3.86146
387.553	3.85486
387.917	3.85331
388.284	3.85173
388.658	3.8501
390.229	3.84438
390.304	3.84426
390.379	3.8441
390.455	3.84392
392.267	3.83765
392.573	3.83688
392.885	3.83606
393.202	3.83521
395.085	3.83079
395.312	3.82999
395.543	3.82915
395.78	3.82829
397.588	3.82389
397.827	3.82241
398.011	3.82176
398.298	3.82135
400.256	3.81678
400.705	3.81568
400.967	3.81475
401.268	3.81322
402.594	3.80954
402.839	3.80944
403.086	3.80864
403.545	3.80642
405.266	3.8001
405.784	3.79801
406.309	3.79586
406.837	3.79367
408.409	3.78715
408.667	3.78566
408.928	3.78416
409.196	3.78265
410.603	3.77594
410.959	3.77455
411.349	3.7725
411.705	3.77147
411.705	3.77147
411.778	3.77259
411.796	3.77379
411.82	3.77494
411.847	3.77606
412.059	3.76599
412.861	3.76156
413.754	3.75694
415.48	3.74665
415.587	3.74546
415.694	3.74425
415.801	3.74298
417.847	3.72931
417.915	3.72697
418.018	3.72566
418.154	3.72063
418.177	3.71895
418.208	3.72215
418.245	3.72424
418.245	3.72424
419.755	3.70717
419.756	3.70587
419.758	3.70452
419.76	3.70312
419.891	3.71659
420.598	3.7046
421.266	3.69212
421.511	3.67369
421.555	3.6745
421.603	3.67524
421.655	3.67818
421.658	3.67595
421.658	3.67595
421.841	3.67581
422.006	3.6747
422.293	3.67167
422.304	3.66354
422.598	3.65686
422.891	3.65001
423.185	3.64302
423.903	3.63288
423.917	3.62066
424.087	3.62946
424.142	3.62526
424.86	3.61001
425.123	3.6036
425.389	3.59702
425.662	3.5903
426.143	3.57494
426.353	3.57497
426.563	3.575
426.773	3.57503
436.213	3.47414
436.427	3.46963
436.641	3.46498
436.855	3.46023
438.125	3.42854
438.329	3.42178
438.54	3.4148
438.755	3.40765
440.338	3.37431
440.339	3.37255
440.341	3.37065
440.342	3.36868
441.608	3.33537
441.716	3.33109
441.823	3.32676
441.931	3.32239
443.193	3.29234
443.406	3.28593
443.62	3.27942
443.834	3.2728
445.249	3.23286
445.401	3.22823
445.558	3.22355
445.72	3.21882
446.98	3.18683
447	3.18467
447.027	3.18251
447.057	3.18033
