Uv/Vis Spectrum: Benzo[b]fluoranthene
Formula: C20H12
CAS: 205-99-2
Instrument: unknown
Origin: INSTITUTE OF ENERGY PROBLEMS OF CHEMICAL PHYSICS, RAS
Wavelength (nm)	Logarithm epsilon
223.18	4.36
223.79	4.348
224.54	4.339
225.06	4.33
225.68	4.32
226.28	4.313
226.93	4.307
227.44	4.299
228.17	4.29
228.81	4.278
229.46	4.267
230.11	4.255
230.76	4.244
231.41	4.232
232.07	4.22
232.73	4.209
233.4	4.197
234.07	4.185
234.74	4.174
235.42	4.162
236.04	4.161
236.78	4.162
237.47	4.174
238.17	4.185
238.86	4.209
239.56	4.232
239.87	4.239
240.27	4.244
240.7	4.239
240.98	4.232
241.53	4.22
242.41	4.209
243.18	4.206
243.86	4.209
244.59	4.22
245.33	4.232
245.67	4.233
246.07	4.232
246.81	4.22
247.56	4.209
248.36	4.206
248.98	4.206
249.83	4.209
250.74	4.218
251.57	4.23
252.15	4.244
252.93	4.267
253.72	4.29
254.51	4.313
255.31	4.337
255.61	4.344
256.07	4.347
256.54	4.345
256.91	4.337
257.99	4.309
258.61	4.29
259.36	4.267
260.19	4.244
261.02	4.22
261.86	4.197
262.7	4.174
263.55	4.15
264.41	4.127
265.27	4.104
265.86	4.091
266.58	4.076
267.88	4.057
268.76	4.046
269.65	4.034
270.52	4.031
271.35	4.031
272.38	4.036
273.26	4.046
274.04	4.061
274.97	4.079
276.03	4.092
276.97	4.092
277.77	4.084
278.7	4.075
279.63	4.065
280.67	4.056
281.75	4.046
282.73	4.034
283.67	4.026
284.7	4.022
285.7	4.034
286.7	4.069
287.71	4.104
288.12	4.117
288.73	4.127
289.26	4.128
289.88	4.123
290.81	4.113
291.83	4.092
292.89	4.076
293.82	4.059
295	4.046
296.07	4.034
297.14	4.034
298.23	4.046
298.91	4.061
299.34	4.089
299.56	4.131
299.74	4.173
299.95	4.221
300.24	4.287
300.56	4.313
300.96	4.324
301.54	4.325
302.04	4.321
302.54	4.304
302.97	4.251
303.37	4.2
303.78	4.15
304.26	4.093
304.66	4.041
305.02	3.996
305.34	3.957
305.7	3.914
306.2	3.872
307.02	3.823
308.32	3.754
309.54	3.697
310.72	3.646
311.91	3.604
313.11	3.58
314.31	3.557
315.53	3.545
316.75	3.545
318.04	3.551
319.55	3.565
320.92	3.581
322.15	3.598
323.25	3.612
324.31	3.627
325.6	3.638
326.81	3.647
328.22	3.65
329.55	3.65
330.88	3.65
332.23	3.65
333.8	3.653
334.96	3.662
335.86	3.677
336.82	3.69
337.64	3.7
338.32	3.705
339.14	3.708
339.83	3.706
340.79	3.7
341.98	3.685
343.26	3.672
343.94	3.665
344.87	3.662
345.72	3.666
346.82	3.673
347.64	3.683
348.33	3.693
349.3	3.708
349.7	3.715
350.8	3.72
351.89	3.716
352.31	3.708
352.99	3.697
353.67	3.683
355.38	3.65
356.55	3.632
358.51	3.604
360.09	3.58
361.68	3.557
363.3	3.545
364.92	3.534
366.56	3.534
368.21	3.545
369.3	3.57
369.85	3.593
370.4	3.603
371.08	3.612
371.57	3.615
372.04	3.612
372.59	3.604
373.55	3.582
374.98	3.534
375.88	3.481
376.62	3.421
377.29	3.344
377.96	3.269
378.46	3.196
379.03	3.137
379.7	3.059
380.63	2.981
381.5	2.913
382.7	2.829
383.8	2.754
385.37	2.7
387.45	2.649
389.31	2.61
390.92	2.574
392.77	2.531
394.84	2.478
396.73	2.432
398.77	2.383
400.76	2.338
402.75	2.298
404.73	2.26
406.76	2.23
