Uv/Vis Spectrum: Hydantoin, 5,5-dimethyl-2,4-dithio-
Formula: C5H8N2S2
CAS: 20513-25-1
Melting point: 144.5
Instrument: n.i.g.
Origin: INSTITUTE OF ENERGY PROBLEMS OF CHEMICAL PHYSICS, RAS
Wavelength (nm)	Logarithm epsilon
230.287	3.4931
231.255	3.45363
232.187	3.41006
233.11	3.36253
234.052	3.3113
235.039	3.25699
236.1	3.20074
237.261	3.14448
238.55	3.09129
239.995	3.04563
240.28	3.03266
241.164	3.04231
242.053	3.05063
242.954	3.05824
242.954	3.05824
243.927	3.11635
245.025	3.1759
246.212	3.23439
247.451	3.29033
248.707	3.34291
249.942	3.39173
251.122	3.43667
252.209	3.4777
253.168	3.51491
253.963	3.54838
254.556	3.5782
254.842	3.59368
254.842	3.59368
254.921	3.58635
255.005	3.57873
255.101	3.57063
255.972	3.63438
256.953	3.66692
257.811	3.69358
258.57	3.716
259.255	3.73544
259.89	3.75294
260.5	3.76933
261.111	3.78536
261.746	3.80165
262.43	3.81874
263.189	3.83707
264.047	3.85701
265.029	3.87882
266.159	3.90267
266.159	3.90267
266.684	3.91936
267.273	3.93721
268.591	3.97207
269.294	3.98731
270.01	4.00012
270.727	4.00985
270.727	4.00985
271.547	4.03003
272.345	4.04895
273.119	4.06665
273.866	4.08317
274.584	4.09854
275.27	4.11279
275.922	4.12594
276.538	4.13802
277.115	4.14902
277.651	4.15898
278.144	4.16788
278.59	4.17573
278.989	4.18252
279.337	4.18825
279.632	4.19288
279.871	4.1964
280.053	4.19878
280.175	4.19999
280.175	4.19999
280.276	4.20507
280.401	4.20976
280.567	4.21488
280.794	4.22124
281.104	4.22958
281.514	4.24058
282.046	4.25478
282.718	4.27261
282.718	4.27261
283.139	4.28057
283.584	4.28841
284.042	4.29615
284.502	4.30376
284.95	4.31125
285.378	4.31862
285.772	4.32585
286.12	4.33295
286.413	4.33992
286.638	4.34674
286.638	4.34674
287.411	4.35854
287.991	4.3681
288.412	4.37555
288.71	4.38099
288.92	4.38448
289.077	4.38607
289.077	4.38607
289.307	4.39313
289.606	4.39966
289.978	4.40574
290.423	4.41144
290.943	4.41684
291.541	4.422
292.217	4.427
292.974	4.43189
293.813	4.43673
294.736	4.44158
294.736	4.44158
295.229	4.44178
295.722	4.44199
296.215	4.44219
296.215	4.44219
296.658	4.44024
297.106	4.43825
297.565	4.4362
297.565	4.4362
298.094	4.43145
298.599	4.42661
299.081	4.42166
299.541	4.41662
299.982	4.41147
300.405	4.40622
300.811	4.40088
301.202	4.39543
301.579	4.38989
301.944	4.38424
302.299	4.3785
302.644	4.37266
302.981	4.36672
303.313	4.36067
303.64	4.35454
303.963	4.3483
304.285	4.34196
304.607	4.33553
304.93	4.32899
305.256	4.32236
305.587	4.31564
305.923	4.30882
305.923	4.30882
306.125	4.30198
306.327	4.29503
306.529	4.28796
306.73	4.28078
306.931	4.27347
307.131	4.26604
307.332	4.25847
307.532	4.25077
307.732	4.24292
307.932	4.23493
308.132	4.22679
308.333	4.21849
308.534	4.21002
308.735	4.20138
308.936	4.19256
309.138	4.18356
309.341	4.17436
309.544	4.16496
309.748	4.15535
309.953	4.14552
310.159	4.13546
310.365	4.12515
310.573	4.11459
310.782	4.10376
310.992	4.09265
311.203	4.08124
311.416	4.06952
311.63	4.05747
311.845	4.04507
312.062	4.0323
312.281	4.01914
312.502	4.00556
312.724	3.99153
312.948	3.97703
313.174	3.96202
313.403	3.94646
313.633	3.93032
313.865	3.91355
313.865	3.91355
314.064	3.90993
314.385	3.89874
315.055	3.86979
316.305	3.80814
316.305	3.80814
316.522	3.80344
316.791	3.79527
317.151	3.78244
317.642	3.7635
318.303	3.73652
319.174	3.69876
320.295	3.64594
321.704	3.57063
321.704	3.57063
321.745	3.56132
322.031	3.54625
322.808	3.51456
324.322	3.45039
326.817	3.32056
326.817	3.32056
328.082	3.27516
329.29	3.22768
330.461	3.17796
331.615	3.12582
332.774	3.07109
333.958	3.01361
335.188	2.95323
336.483	2.88985
337.865	2.82347
