Uv/Vis Spectrum: 1,4-dihydropyrido[2,3-b]pyrazine-2,3-dione
Formula: C7H5N3O2
CAS: 2067-84-7
Melting point: > 310
Instrument: Cary 15
Origin: INSTITUTE OF ENERGY PROBLEMS OF CHEMICAL PHYSICS, RAS
Wavelength (nm)	Logarithm epsilon
227.067	3.83
227.229	3.825
228.229	3.807
229.229	3.778
230.229	3.744
231.229	3.709
232.229	3.677
233.229	3.65
234.229	3.632
235.229	3.621
236.229	3.619
237.229	3.622
238.138	3.625
239.138	3.627
240.138	3.628
241.138	3.628
242.138	3.626
243.138	3.622
244.138	3.616
245.138	3.608
246.138	3.598
247.138	3.585
248.138	3.571
249.138	3.555
250.138	3.537
251.138	3.518
252.138	3.497
253.138	3.477
254.138	3.456
255.138	3.435
256.138	3.416
257.138	3.398
258.138	3.382
259.167	3.367
260.167	3.356
261.167	3.344
262.167	3.332
263.167	3.32
264.167	3.31
265.167	3.301
266.167	3.295
267.167	3.292
268.167	3.292
269.167	3.296
270.167	3.304
271.167	3.316
272.167	3.333
273.167	3.354
274.167	3.38
275.167	3.411
276.125	3.443
277.125	3.476
278.125	3.509
279.125	3.541
280.125	3.572
281.125	3.604
282.125	3.634
283.125	3.664
284.125	3.694
285.125	3.724
286.125	3.753
287.125	3.782
288.125	3.811
289.125	3.839
290.125	3.867
291.125	3.894
292.125	3.921
293.125	3.946
294.125	3.971
295.125	3.995
296.125	4.017
297.125	4.038
298.125	4.057
299.125	4.073
300.125	4.087
301.187	4.099
302.187	4.108
303.187	4.119
304.187	4.131
305.187	4.143
306.187	4.157
307.187	4.17
308.187	4.183
309.187	4.194
310.187	4.203
311.187	4.209
312.187	4.211
313.187	4.207
314.187	4.196
314.418	4.194
315.418	4.18
316.418	4.166
317.418	4.153
318.418	4.143
319.678	4.14
320.678	4.146
321.678	4.151
322.678	4.151
323.678	4.146
323.822	4.143
324.822	4.132
325.822	4.113
326.822	4.086
327.822	4.054
328.822	4.02
329.822	3.984
330.822	3.949
331.822	3.915
332.822	3.884
333.822	3.856
334.822	3.832
335.822	3.813
336.822	3.798
337.822	3.786
338.679	3.776
339.372	3.767
340.759	3.745
341.452	3.731
342.145	3.718
342.839	3.693
343.532	3.662
344.225	3.622
