Uv/Vis Spectrum: 1-(4-methoxyphenyl)-3,5-diphenylformazan
Formula: C20H18N4O
CAS: 20648-42-4
Melting point: 154
Instrument: SF-4M
Origin: INSTITUTE OF ENERGY PROBLEMS OF CHEMICAL PHYSICS, RAS
Wavelength (nm)	Logarithm epsilon
249.008	4.253
250.008	4.248
251.008	4.243
252.008	4.239
253.008	4.234
254.008	4.23
255.008	4.226
256.008	4.222
257.008	4.218
258.008	4.214
259.008	4.211
260.008	4.207
261.008	4.204
262.008	4.201
263.008	4.198
264.008	4.196
265.008	4.193
266.008	4.191
267.008	4.189
268.008	4.188
269.008	4.187
270.008	4.186
271.008	4.185
272.008	4.184
273.008	4.184
274.008	4.184
275.008	4.185
276.008	4.186
277.008	4.187
278.008	4.189
279.008	4.191
280.008	4.193
281.008	4.196
282.008	4.2
283.008	4.203
284.008	4.207
285.008	4.212
285.425	4.213
286.425	4.218
287.425	4.224
288.425	4.231
289.425	4.24
290.425	4.249
291.425	4.26
292.425	4.272
293.425	4.285
294.425	4.299
295.425	4.314
296.703	4.331
297.703	4.341
298.703	4.352
299.703	4.361
300.703	4.37
301.703	4.379
302.703	4.387
303.703	4.395
304.703	4.403
305.703	4.409
306.703	4.416
307.703	4.422
308.703	4.427
309.703	4.432
310.703	4.436
311.703	4.439
312.703	4.442
313.703	4.443
314.703	4.444
315.703	4.444
316.703	4.443
317.703	4.442
318.703	4.439
319.703	4.436
320.703	4.432
321.703	4.427
322.703	4.422
323.703	4.417
324.703	4.412
325.536	4.407
326.536	4.404
327.536	4.399
328.536	4.394
329.536	4.387
330.536	4.38
331.536	4.372
332.536	4.363
333.536	4.353
334.536	4.343
335.536	4.333
336.536	4.322
337.536	4.311
338.536	4.3
339.536	4.289
340.536	4.278
341.536	4.267
342.536	4.256
343.536	4.246
344.536	4.235
345.536	4.224
346.536	4.214
347.536	4.204
348.536	4.194
349.536	4.184
350.536	4.175
351.536	4.165
352.536	4.155
353.536	4.145
354.536	4.135
355.536	4.125
356.536	4.113
357.536	4.101
358.536	4.089
359.536	4.074
359.842	4.062
360.842	4.053
361.842	4.037
362.842	4.015
363.842	3.99
364.842	3.962
365.842	3.934
366.842	3.905
367.842	3.877
368.842	3.851
369.842	3.827
370.842	3.806
371.842	3.787
372.842	3.771
373.842	3.757
374.62	3.753
375.62	3.739
376.62	3.725
377.62	3.71
378.62	3.696
379.62	3.681
380.62	3.667
381.62	3.652
382.62	3.638
383.649	3.627
384.649	3.621
385.649	3.614
386.649	3.605
387.649	3.595
388.649	3.582
389.649	3.569
390.649	3.556
391.649	3.543
392.649	3.533
393.649	3.525
394.649	3.52
395.649	3.518
396.649	3.517
398.416	3.516
399.416	3.517
400.416	3.518
401.416	3.52
402.416	3.523
403.416	3.528
404.416	3.534
405.416	3.541
406.416	3.548
407.416	3.556
408.416	3.564
409.416	3.573
410.416	3.581
411.416	3.59
412.416	3.602
413.031	3.611
413.392	3.616
414.392	3.621
415.392	3.628
416.392	3.637
417.392	3.646
418.392	3.657
419.392	3.667
420.392	3.679
421.392	3.691
422.392	3.703
423.392	3.715
424.392	3.727
425.392	3.74
426.392	3.752
427.392	3.764
428.392	3.776
429.392	3.788
430.392	3.8
431.392	3.812
432.392	3.825
433.392	3.837
434.392	3.849
435.392	3.862
436.392	3.875
437.392	3.889
438.392	3.903
439.392	3.918
440.392	3.934
441.392	3.95
441.648	3.952
442.648	3.977
443.648	4
444.648	4.021
445.648	4.041
446.648	4.059
447.648	4.076
448.648	4.091
449.648	4.105
450.648	4.118
451.648	4.13
452.648	4.141
453.648	4.151
454.648	4.161
455.648	4.169
456.648	4.177
457.648	4.185
458.648	4.192
459.648	4.199
460.648	4.205
461.648	4.212
462.648	4.218
463.648	4.224
464.648	4.23
464.87	4.233
465.87	4.241
466.87	4.248
467.87	4.255
468.87	4.262
469.87	4.268
470.87	4.274
471.87	4.28
472.87	4.285
473.87	4.29
474.87	4.295
475.87	4.299
476.87	4.303
477.87	4.307
478.87	4.31
479.87	4.314
480.87	4.317
481.87	4.319
482.87	4.322
483.87	4.324
484.87	4.326
485.87	4.327
486.87	4.329
487.87	4.33
488.87	4.331
489.87	4.332
490.87	4.332
491.87	4.333
492.87	4.333
493.87	4.333
494.87	4.332
495.87	4.332
496.87	4.332
497.87	4.331
498.87	4.33
499.87	4.329
500.87	4.327
501.87	4.326
502.87	4.325
503.87	4.323
504.87	4.321
505.87	4.319
506.87	4.317
507.87	4.314
508.87	4.312
509.87	4.309
510.87	4.307
511.87	4.304
512.87	4.301
512.898	4.297
513.898	4.295
514.898	4.292
515.898	4.29
516.898	4.289
517.898	4.287
518.898	4.286
519.898	4.285
520.898	4.284
521.898	4.283
522.898	4.281
523.898	4.28
524.898	4.278
525.898	4.277
526.898	4.275
527.898	4.272
528.898	4.27
529.898	4.267
530.898	4.263
531.898	4.26
532.898	4.255
533.898	4.25
534.898	4.245
535.898	4.239
536.898	4.233
537.898	4.226
538.898	4.218
539.898	4.21
540.898	4.201
541.898	4.191
542.898	4.181
543.898	4.169
544.898	4.158
545.898	4.145
546.898	4.132
547.898	4.118
548.898	4.103
549.898	4.088
550.898	4.072
551.898	4.055
552.481	4.04
553.481	4.03
554.481	4.012
555.481	3.986
556.481	3.956
557.481	3.924
558.481	3.892
559.481	3.863
560.481	3.84
561.481	3.825
562.421	3.815
563.421	3.799
564.421	3.784
565.421	3.768
566.421	3.753
567.421	3.737
568.421	3.722
569.421	3.706
570.421	3.69
571.421	3.673
572.421	3.657
573.421	3.64
574.421	3.623
575.421	3.606
576.421	3.59
577.421	3.574
578.421	3.56
579.421	3.546
580.453	3.532
