Uv/Vis Spectrum: 1-(4-nitrophenyl)-3,5-diphenylformazan
Formula: C19H15N5O2
CAS: 20648-41-3
Melting point: 165-170
Instrument: SF-4M
Origin: INSTITUTE OF ENERGY PROBLEMS OF CHEMICAL PHYSICS, RAS
Wavelength (nm)	Logarithm epsilon
240.191	4.045
241.691	4.038
243.191	4.038
244.691	4.042
246.191	4.048
247.691	4.054
249.191	4.06
250.762	4.068
252.262	4.075
253.762	4.083
255.262	4.088
256.762	4.086
258.262	4.079
259.164	4.072
260.664	4.064
262.164	4.057
263.664	4.05
265.164	4.043
266.664	4.035
268.164	4.028
269.664	4.021
271.164	4.014
272.664	4.009
274.164	4.007
275.664	4.008
277.299	4.015
278.799	4.026
280.299	4.038
281.799	4.05
283.299	4.061
284.799	4.072
286.299	4.083
287.799	4.095
289.299	4.107
290.799	4.12
292.299	4.13
293.797	4.14
295.408	4.143
296.883	4.137
298.016	4.131
299.703	4.13
300.849	4.134
302.388	4.138
303.682	4.14
305.475	4.136
306.515	4.128
306.75	4.127
308.25	4.12
309.75	4.115
311.25	4.111
312.75	4.108
314.25	4.105
315.75	4.102
317.25	4.098
318.75	4.094
320.25	4.09
321.75	4.086
323.25	4.082
324.75	4.078
326.25	4.074
327.75	4.071
329.25	4.067
330.75	4.063
332.25	4.059
333.75	4.054
335.25	4.049
336.75	4.043
338.25	4.036
339.75	4.029
341.425	4.022
342.925	4.017
344.425	4.016
345.925	4.016
347.425	4.017
348.925	4.017
350.425	4.015
351.925	4.012
353.404	4.008
354.88	4.004
356.38	3.999
357.88	3.995
359.38	3.991
360.88	3.987
362.38	3.983
363.88	3.979
365.38	3.975
366.88	3.971
368.38	3.967
369.88	3.963
371.38	3.958
372.88	3.954
374.38	3.95
375.88	3.946
377.38	3.942
378.88	3.939
380.38	3.936
381.88	3.933
383.38	3.932
384.88	3.931
386.38	3.931
387.88	3.932
389.38	3.934
390.88	3.936
392.38	3.939
394.019	3.943
395.519	3.95
397.019	3.958
398.519	3.967
400.019	3.976
401.519	3.986
403.019	3.996
404.519	4.007
406.019	4.018
407.519	4.029
409.019	4.04
410.519	4.051
412.019	4.061
413.519	4.072
415.019	4.083
416.519	4.093
418.019	4.103
419.519	4.113
421.019	4.122
422.519	4.132
424.019	4.141
425.519	4.15
427.019	4.158
428.519	4.167
430.019	4.175
431.519	4.183
433.019	4.19
434.519	4.198
436.019	4.205
437.519	4.212
439.019	4.219
440.519	4.226
442.019	4.233
443.519	4.239
445.019	4.245
446.519	4.252
448.019	4.258
449.519	4.264
451.142	4.27
452.642	4.276
454.142	4.283
455.642	4.288
457.247	4.291
458.937	4.291
459.971	4.288
461.471	4.284
462.971	4.285
464.471	4.288
465.971	4.291
465.982	4.291
467.482	4.297
468.982	4.301
470.482	4.302
471.982	4.3
473.482	4.295
474.982	4.29
476.243	4.285
477.771	4.28
479.271	4.272
480.771	4.265
482.271	4.258
483.771	4.252
485.271	4.246
486.771	4.24
488.271	4.234
489.771	4.228
491.271	4.222
492.771	4.216
494.271	4.209
495.771	4.202
497.271	4.195
498.771	4.187
500.271	4.179
501.771	4.171
503.271	4.162
504.771	4.153
506.271	4.144
507.771	4.134
509.271	4.124
510.771	4.115
512.271	4.104
513.771	4.094
515.271	4.084
516.771	4.073
518.271	4.063
519.771	4.052
521.271	4.041
522.771	4.03
524.271	4.019
525.771	4.008
527.271	3.996
528.771	3.984
530.271	3.971
531.771	3.958
533.271	3.945
534.771	3.931
536.271	3.916
537.771	3.901
539.271	3.885
540.771	3.867
542.271	3.849
543.771	3.83
545.271	3.81
546.771	3.788
548.271	3.766
549.771	3.742
551.271	3.717
552.771	3.691
554.271	3.663
555.771	3.634
557.271	3.605
558.771	3.574
560.271	3.543
561.771	3.511
563.163	3.481
564.663	3.449
566.163	3.417
567.663	3.386
569.163	3.357
570.663	3.329
572.163	3.304
573.663	3.278
575.163	3.251
576.663	3.22
