Uv/Vis Spectrum: Fluoranthene
Formula: C16H10
CAS: 206-44-0
Melting point: 107.8
Boiling point: 384
Instrument: n.i.g.
Origin: INSTITUTE OF ENERGY PROBLEMS OF CHEMICAL PHYSICS, RAS
Wavelength (nm)	Logarithm epsilon
243.067	4.72644
243.389	4.72825
245.743	4.73481
247.568	4.72966
247.729	4.72965
249.73	4.71436
250.231	4.71089
252.391	4.69234
253.232	4.68724
253.393	4.68723
253.89	4.67708
254.05	4.67545
254.21	4.67382
254.39	4.67199
254.55	4.67036
255.049	4.66365
255.209	4.66202
257.368	4.64003
259.207	4.62313
259.527	4.61967
261.692	4.60943
262.355	4.61102
264.871	4.62102
267.049	4.63772
267.392	4.63953
269.066	4.65281
269.388	4.65442
271.244	4.66952
271.728	4.67293
274.247	4.68962
274.589	4.69123
277.084	4.69778
277.926	4.69612
278.429	4.6961
280.411	4.68263
282.575	4.67056
283.076	4.66892
283.417	4.66728
285.423	4.66212
286.908	4.6586
287.408	4.65533
287.588	4.6535
288.249	4.6484
288.568	4.64515
289.246	4.63336
289.405	4.62991
290.397	4.60636
290.557	4.60473
290.716	4.59966
291.389	4.58099
291.548	4.57592
291.707	4.57267
292.36	4.55238
292.538	4.54731
292.696	4.54223
293.188	4.52215
293.346	4.51708
293.837	4.49336
294.162	4.45972
294.471	4.43458
294.649	4.42951
294.961	4.41086
295.141	4.40923
295.631	4.38388
295.789	4.37901
296.283	4.36197
296.441	4.3571
296.601	4.35527
297.272	4.33174
297.431	4.32667
298.084	4.3082
298.243	4.30313
298.423	4.30129
299.077	4.28445
299.235	4.27938
300.068	4.25746
300.227	4.25421
300.387	4.25258
301.22	4.23066
301.379	4.22721
301.558	4.22375
302.373	4.2069
302.533	4.20527
302.712	4.2002
304.187	4.17663
305.527	4.16643
306.188	4.16133
308.189	4.14604
309.19	4.13768
310.847	4.11734
311.008	4.11733
311.168	4.11571
313.006	4.09536
315.165	4.07499
317.151	4.06821
317.995	4.06999
319.328	4.08329
319.672	4.08834
321.51	4.1085
322.015	4.11516
322.177	4.11677
322.359	4.12021
322.521	4.12182
322.685	4.1285
323.19	4.13353
323.372	4.13697
323.534	4.1402
323.696	4.14202
323.878	4.14363
324.04	4.14706
324.204	4.15374
324.367	4.15879
325.216	4.16888
325.378	4.17049
325.72	4.1721
325.883	4.17715
326.046	4.18059
326.227	4.1822
326.39	4.18564
327.905	4.20237
328.41	4.20903
332.25	4.2139
332.57	4.21227
333.254	4.21385
336.247	4.2137
337.252	4.21527
337.755	4.21687
339.586	4.22184
340.09	4.22526
342.266	4.23851
342.428	4.24033
344.782	4.24852
345.445	4.24848
347.95	4.23661
350.111	4.21807
350.272	4.21806
350.431	4.21623
350.592	4.21622
352.756	4.20436
353.096	4.2011
353.257	4.20109
355.1	4.19087
357.269	4.19076
357.591	4.19237
358.275	4.19395
358.598	4.19576
360.452	4.20742
360.774	4.20902
362.605	4.21561
362.946	4.21397
364.607	4.20214
364.947	4.19868
365.444	4.18691
365.762	4.18183
366.101	4.17513
366.258	4.16843
366.436	4.16336
366.595	4.15991
366.915	4.15665
367.588	4.13636
367.746	4.13129
368.579	4.10937
368.737	4.1043
369.549	4.08076
369.727	4.07406
370.379	4.05215
370.536	4.04546
370.695	4.04039
371.368	4.02172
371.527	4.01664
372.514	3.98297
372.673	3.9779
372.832	3.97627
373.667	3.95779
373.825	3.95272
374.973	3.91721
375.152	3.91396
376.14	3.88191
376.299	3.87683
377.11	3.85147
377.288	3.8464
377.782	3.82956
377.939	3.82287
378.099	3.82124
378.751	3.79771
378.929	3.79264
379.577	3.76384
379.737	3.76221
380.562	3.72348
381.212	3.6965
381.371	3.69488
382.196	3.65614
382.355	3.65269
383.183	3.62064
383.341	3.61577
383.992	3.59204
384.172	3.59041
384.329	3.58189
384.98	3.55836
385.137	3.55167
385.963	3.51456
386.122	3.51131
386.951	3.4825
387.11	3.47743
387.269	3.47418
387.757	3.4456
387.935	3.44052
388.421	3.40849
388.578	3.39998
389.221	3.35963
