Uv/Vis Spectrum: 2-Butanethiol, 3-methyl-
Formula: C5H12S
CAS: 2084-18-6
Instrument: unknown
Origin: INSTITUTE OF ENERGY PROBLEMS OF CHEMICAL PHYSICS, RAS
Wavelength (nm)	Logarithm epsilon
215.36	2.187
215.53	2.187
215.69	2.185
215.86	2.185
216.03	2.185
216.2	2.183
216.37	2.183
216.54	2.181
216.71	2.181
216.88	2.181
217.04	2.179
217.21	2.179
217.38	2.177
217.55	2.177
217.72	2.174
217.89	2.174
218.06	2.174
218.22	2.172
218.39	2.172
218.56	2.17
218.73	2.17
218.9	2.168
219.07	2.168
219.24	2.168
219.41	2.166
219.57	2.166
219.74	2.164
219.91	2.164
220.08	2.162
220.25	2.162
220.42	2.162
220.76	2.16
221.43	2.158
222.11	2.149
222.78	2.147
223.46	2.141
224.13	2.137
224.81	2.13
225.48	2.126
226.16	2.12
226.83	2.112
227.51	2.107
228.18	2.099
228.86	2.091
229.53	2.082
230.21	2.076
230.88	2.07
231.56	2.061
232.23	2.051
232.91	2.04
233.58	2.03
234.26	2.023
234.93	2.013
235.61	2
236.28	1.99
236.96	1.979
237.63	1.963
238.31	1.952
238.98	1.942
239.66	1.929
240.33	1.912
241.01	1.898
241.68	1.881
242.36	1.86
243.03	1.841
243.71	1.828
244.38	1.805
245.06	1.784
245.73	1.759
246.41	1.732
247.08	1.713
247.76	1.684
248.43	1.652
249.11	1.616
249.78	1.593
250.46	1.554
251.13	1.512
251.81	1.472
252.48	1.394
253.16	1.346
253.83	1.285
254.51	1.235
255.18	1.182
255.86	1.134
256.53	1.1
257.21	1.058
257.88	1.021
258.56	0.996
259.23	0.96
259.91	0.928
260.58	0.901
261.26	0.876
261.93	0.851
262.61	0.826
263.28	0.803
263.96	0.779
264.63	0.759
265.31	0.738
265.98	0.721
266.66	0.7
267.33	0.681
268.01	0.662
268.68	0.647
269.36	0.633
270.03	0.618
270.71	0.603
271.38	0.589
272.06	0.578
272.73	0.566
273.41	0.553
