Uv/Vis Spectrum: Acenaphthylene
Formula: C12H8
CAS: 208-96-8
Melting point: 92.5
Boiling point: 280; 150(28)
Instrument: n.i.g.
Origin: INSTITUTE OF ENERGY PROBLEMS OF CHEMICAL PHYSICS, RAS
Wavelength (nm)	Logarithm epsilon
236.896	3.8287
236.896	3.83328
236.896	3.83779
236.896	3.84215
237.223	3.7808
237.452	3.75257
237.681	3.72427
237.911	3.69582
238.598	3.63807
238.827	3.61543
239.056	3.59279
239.285	3.57015
240.299	3.50913
240.857	3.4877
241.422	3.46613
242.001	3.44449
244.39	3.3933
244.606	3.38627
245.352	3.37529
247.269	3.35098
253.389	3.35951
254.667	3.36935
255.677	3.37548
257.283	3.38313
261.7	3.41037
262.258	3.41167
262.823	3.41289
263.402	3.41397
263.402	3.41397
264.76	3.40128
265.557	3.392
266.478	3.37821
269.881	3.34573
271.6	3.35021
272.504	3.36016
273.088	3.37821
273.088	3.37821
273.482	3.37886
273.883	3.37943
274.299	3.37985
275.641	3.33228
276.041	3.31667
276.506	3.29166
277.015	3.26928
278.717	3.23352
278.946	3.23022
279.175	3.22686
279.404	3.22334
279.731	3.22334
280.189	3.22334
280.647	3.22334
281.106	3.22334
281.106	3.22334
281.937	3.2335
282.761	3.246
283.134	3.25747
284.836	3.30176
285.5	3.3267
286.179	3.35163
286.865	3.37657
288.566	3.42743
289.532	3.45343
290.317	3.47404
291.283	3.50552
292.984	3.54653
293.648	3.56809
294.327	3.5895
295.013	3.61084
297.238	3.6571
298.577	3.68362
299.684	3.70561
300.805	3.73322
303.194	3.78277
304.218	3.8053
305.366	3.8333
305.91	3.85561
308.626	3.90843
310.089	3.92395
311.559	3.9359
313.371	3.94748
317.625	3.96979
318.476	3.98848
319.327	4.00709
320.177	4.02557
324.268	4.03935
325.51	4.01911
326.549	3.98597
326.984	3.95765
327.311	3.9373
327.639	3.91818
327.975	3.89891
328.325	3.87956
329.7	3.76406
329.799	3.78441
329.906	3.80475
330.027	3.82509
330.387	3.72994
330.586	3.70494
331.759	3.68571
333.79	3.6653
334.118	3.61773
334.857	3.58162
335.298	3.56623
335.819	3.55834
337.848	3.59575
338.357	3.61863
338.713	3.62875
339.222	3.63479
339.222	3.63479
339.615	3.63379
340.008	3.63273
340.4	3.63151
340.4	3.63151
340.443	3.62692
340.5	3.62232
340.564	3.61773
340.924	3.60428
341.26	3.58023
341.603	3.5591
341.938	3.52586
342.953	3.46155
343.276	3.4265
343.535	3.40801
343.64	3.3933
344.327	3.33556
344.533	3.31192
344.754	3.28821
344.982	3.26436
345.342	3.20661
345.441	3.17938
345.548	3.15214
345.669	3.12491
346.029	3.07045
346.128	3.03885
346.235	3.00711
346.356	2.92772
346.356	2.9753
346.585	2.90179
346.814	2.87578
347.043	2.84963
348.058	2.79845
348.493	2.77581
348.942	2.75317
349.399	2.73053
351.788	2.6695
352.804	2.64685
353.827	2.62412
354.864	2.60125
357.22	2.56057
358.3	2.54767
359.38	2.53464
360.46	2.52152
365.728	2.47559
367.366	2.46836
369.01	2.46105
370.67	2.4536
377.28	2.42801
378.56	2.417
379.578	2.41037
381.207	2.40242
385.788	2.40406
387.746	2.40362
389.611	2.39925
391.743	2.39225
395.998	2.36698
397.566	2.35637
399.142	2.34117
400.055	2.32269
402.444	2.28529
403.324	2.26666
403.986	2.25568
404.997	2.24296
405.487	2.24099
406.045	2.24099
406.61	2.24099
407.189	2.24099
411.279	2.26133
413.117	2.24998
414.416	2.23178
415.534	2.20884
418.413	2.16618
420.381	2.14267
421.484	2.12812
422.667	2.11008
424.892	2.06775
425.976	2.04607
427.387	2.02337
