Uv/Vis Spectrum: Glutarimide, 3-[2-(3,5-dimethyl-2-oxocyclohexyl)-2-hydroxyethyl]-
Formula: C15H23NO4
CAS: 21059-09-6
Instrument: Beckman DU
Origin: INSTITUTE OF ENERGY PROBLEMS OF CHEMICAL PHYSICS, RAS
Wavelength (nm)	Logarithm epsilon
240	3.28001
241	3.25
242	3.22
243	3.19
244	3.17
245	3.15
246	3.14
247	3.13
248	3.12
249	3.11
250	3.09999
251	3.09
252	3.08
253	3.07
254	3.06
255	3.04
256	3.03
257	3.02
258	3
259	2.99
260	2.97
261	2.95
262	2.94
263	2.92
264	2.9
265	2.88
266	2.85
267	2.83
268	2.8
269	2.77
270	2.74
271	2.72
272	2.69
273	2.66
274	2.63
275	2.61
276	2.59
277	2.56
278	2.55
279	2.55
280	2.55
281	2.55
282	2.55
283	2.55
284	2.55
285	2.55
286	2.55
287	2.55
288	2.55
289	2.55
290	2.55
291	2.54
292	2.54
293	2.54
294	2.53
295	2.53
296	2.51
297	2.5
298	2.49
299	2.47
300	2.46
301	2.44
302	2.43
303	2.41
304	2.39
305	2.36
306	2.34
307	2.32
308	2.3
309	2.25
310	2.22999
311	2.2
312	2.17
313	2.14
314	2.11
315	2.04
316	2
317	1.95
318	1.9
319	1.9
320	1.84
321	1.77
322	1.77
323	1.69
324	1.6
325	1.6
326	1.47
327	1.47
328	1.3
329	1.1
