Uv/Vis Spectrum: 1-deoxy-1-[[4,5-dimethyl-2-(phenylazo)phenyl]amino]-D-ribitol
Formula: C19H25N3O4
CAS: 21037-26-3
Melting point: 174-175
Instrument: Beckman DK-2A
Origin: INSTITUTE OF ENERGY PROBLEMS OF CHEMICAL PHYSICS, RAS
Wavelength (nm)	Logarithm epsilon
303.077	3.872
304.077	3.903
305.077	3.928
306.077	3.949
307.077	3.967
308.077	3.983
309.077	3.997
310.077	4.01
311.077	4.023
312.077	4.035
313.077	4.048
314.077	4.061
315.077	4.073
316.077	4.087
317.077	4.1
318.077	4.113
319.077	4.126
320.077	4.138
321.077	4.15
322.077	4.161
323.077	4.171
324.077	4.18
325.077	4.187
326.077	4.193
327.077	4.198
328.077	4.202
329.077	4.204
330.077	4.205
331.077	4.204
332.077	4.203
333.077	4.2
334.077	4.197
335.077	4.192
336.077	4.188
337.077	4.182
338.077	4.176
339.077	4.169
340.077	4.162
341.077	4.153
342.077	4.143
343.077	4.131
343.195	4.134
344.195	4.11
345.195	4.089
346.195	4.07
347.195	4.051
348.195	4.03
349.195	4.006
350.195	3.979
351.195	3.947
352.195	3.911
353.195	3.871
354.195	3.827
355.195	3.779
356.195	3.728
357.195	3.674
358.195	3.619
359.195	3.564
360.195	3.509
361.195	3.455
362.195	3.404
363.195	3.357
364.195	3.314
365.195	3.277
366.195	3.246
367.195	3.222
367.337	3.221
368.337	3.201
369.337	3.18
370.337	3.159
371.337	3.139
372.337	3.119
373.337	3.1
374.337	3.083
375.337	3.068
376.337	3.055
377.337	3.044
378.337	3.035
379.337	3.029
380.337	3.025
381.337	3.024
382.337	3.025
383.337	3.028
384.337	3.033
385.337	3.04
386.337	3.049
387.337	3.059
388.337	3.071
389.337	3.084
390.337	3.098
391.337	3.113
392.337	3.128
393.337	3.144
394.337	3.16
395.337	3.176
396.337	3.193
397.337	3.209
398.337	3.226
399.337	3.242
400.337	3.259
401.337	3.277
402.337	3.295
402.84	3.305
403.84	3.325
404.84	3.345
405.84	3.366
406.84	3.387
407.84	3.408
408.84	3.429
409.84	3.45
410.84	3.471
411.84	3.491
412.84	3.511
413.84	3.531
414.84	3.551
415.84	3.57
416.84	3.588
417.84	3.606
418.84	3.624
419.84	3.64
420.84	3.657
421.84	3.673
422.84	3.688
423.84	3.702
424.84	3.716
425.84	3.729
426.84	3.742
427.84	3.754
428.84	3.766
429.84	3.777
430.84	3.787
431.84	3.797
432.84	3.807
433.84	3.816
434.84	3.825
435.84	3.833
436.84	3.841
437.84	3.848
438.84	3.855
439.84	3.862
440.84	3.869
441.84	3.875
442.84	3.882
443.84	3.888
444.84	3.894
445.84	3.9
446.84	3.905
447.84	3.911
448.84	3.917
449.84	3.922
450.84	3.927
451.84	3.933
452.84	3.938
453.84	3.943
454.84	3.948
455.84	3.953
456.84	3.957
457.84	3.961
458.84	3.965
459.289	3.966
460.289	3.97
461.289	3.973
462.289	3.976
463.289	3.978
464.289	3.98
465.289	3.982
466.289	3.984
467.289	3.986
468.289	3.988
469.289	3.991
470.289	3.994
471.289	3.996
472.289	3.999
473.289	4.002
474.289	4.005
475.289	4.008
476.289	4.01
477.289	4.012
478.289	4.014
479.289	4.015
480.289	4.015
481.289	4.015
482.289	4.014
483.289	4.012
484.289	4.009
485.289	4.006
486.289	4.002
487.289	3.997
488.289	3.991
489.289	3.984
490.289	3.978
491.289	3.97
492.289	3.962
493.289	3.954
494.289	3.946
495.289	3.937
496.289	3.928
497.289	3.92
498.289	3.911
499.289	3.903
500.289	3.894
501.289	3.885
502.289	3.877
503.289	3.867
504.289	3.858
505.289	3.847
506.289	3.835
507.289	3.821
508.289	3.804
509.289	3.784
509.348	3.784
510.348	3.758
511.348	3.733
512.348	3.71
513.348	3.687
514.348	3.665
515.348	3.644
516.348	3.623
517.348	3.601
518.348	3.579
519.348	3.557
520.348	3.535
521.348	3.511
522.348	3.487
523.348	3.461
524.348	3.435
525.348	3.408
526.348	3.379
527.348	3.35
528.348	3.32
