Uv/Vis Spectrum: Benzene, 1-azido-4-bromo-
Formula: C6H4BrN3
CAS: 2101-88-4
Melting point: 20
Boiling point: 105/ 10 mm; 69/ 2 mm
Instrument: Zeiss quartz spectrograph
Origin: INSTITUTE OF ENERGY PROBLEMS OF CHEMICAL PHYSICS, RAS
Wavelength (nm)	Logarithm epsilon
218.22	4.146
218.64	4.137
218.98	4.125
219.44	4.113
219.91	4.099
220.41	4.072
221.51	3.982
222.6	3.824
223.7	3.688
224.79	3.564
225.89	3.462
226.99	3.411
228.08	3.389
229.18	3.377
230.27	3.377
231.37	3.383
232.36	3.397
233.56	3.418
234.66	3.451
235.75	3.473
236.85	3.502
238.02	3.537
239.04	3.575
240.15	3.616
241.23	3.666
242.35	3.72
243.42	3.778
244.52	3.824
245.62	3.869
246.71	3.92
247.81	3.959
248.9	4.005
250	4.038
251.1	4.072
252.19	4.089
253.29	4.106
254.38	4.112
255.48	4.112
256.58	4.118
257.67	4.118
258.77	4.112
259.86	4.112
260.96	4.112
262.05	4.106
263.15	4.095
264.25	4.078
265.26	4.048
266.44	4.005
267.53	3.965
268.39	3.927
269.73	3.875
270.79	3.836
271.92	3.795
273.01	3.75
274.11	3.711
274.93	3.672
275.95	3.624
277.4	3.547
278.49	3.502
279.59	3.462
280.68	3.423
281.78	3.389
282.88	3.36
283.97	3.349
285.07	3.332
286.16	3.332
287.05	3.37
287.95	3.386
288.84	3.357
289.45	3.321
290.55	3.304
291.64	3.264
292.54	3.205
293.84	3.163
295.09	3.192
295.98	3.227
297.12	3.242
298.28	3.208
299.32	3.112
300.41	2.897
301.51	2.756
302.6	2.62
303.7	2.524
304.79	2.468
305.89	2.417
306.99	2.383
308.08	2.36
309.18	2.338
310.27	2.327
311.37	2.31
312.47	2.304
313.56	2.287
314.66	2.276
315.75	2.259
316.85	2.242
317.95	2.225
319.04	2.214
320.14	2.197
321.23	2.18
322.33	2.174
323.42	2.151
324.52	2.14
325.62	2.123
326.71	2.112
327.81	2.095
328.9	2.078
330	2.067
331.1	2.044
332.19	2.021
333.29	2.01
334.38	1.993
335.48	1.965
336.58	1.954
337.67	1.931
338.77	1.914
339.86	1.897
340.96	1.875
341.79	1.859
343.15	1.824
344.25	1.795
345.34	1.773
346.44	1.739
347.53	1.716
348.63	1.688
349.73	1.666
350.82	1.649
351.92	1.62
353.01	1.592
354.11	1.575
355.21	1.547
356.3	1.524
357.4	1.496
358.49	1.473
359.59	1.44
360.68	1.411
361.78	1.383
362.88	1.349
363.97	1.321
365.07	1.287
366.16	1.253
367.26	1.225
368.36	1.185
369.45	1.157
370.55	1.129
371.64	1.095
372.74	1.067
373.84	1.027
374.93	0.999
376.03	0.971
377.12	0.942
378.22	0.914
379.32	0.886
380.41	0.846
381.51	0.818
382.6	0.79
383.7	0.762
384.79	0.728
385.89	0.677
