Uv/Vis Spectrum: 1,1'-Biphenyl, 3-nitro-
Formula: C12H9NO2
CAS: 2113-58-8
Melting point: 62
Boiling point: 227(35); 143(9)
Instrument: n.i.g.
Origin: INSTITUTE OF ENERGY PROBLEMS OF CHEMICAL PHYSICS, RAS
Wavelength (nm)	Logarithm epsilon
400.631	1.12139
400.174	1.14261
399.692	1.16372
399.198	1.18459
399.198	1.18459
398.911	1.18565
398.612	1.1866
398.287	1.18732
394.315	1.28148
394.3	1.28916
394.145	1.29343
393.718	1.29796
376.56	1.88208
375.289	1.89871
374.935	1.91784
374.785	1.94003
374.785	1.94003
374.532	1.94109
374.268	1.94204
373.982	1.94275
371.457	2.02515
371.454	2.02182
371.451	2.01824
371.448	2.01455
355.099	2.4832
354.912	2.49312
354.611	2.4981
353.94	2.50241
353.94	2.50241
353.727	2.51818
353.514	2.53371
353.301	2.54913
345.029	2.72866
344.384	2.7388
343.722	2.74895
343.053	2.75909
334.161	2.87567
334.027	2.88909
333.516	2.89573
332.5	2.89759
316.108	2.99344
315.598	3.0079
314.743	3.01086
313.521	3.01022
301.122	3.14127
300.961	3.14765
300.794	3.15404
300.612	3.16042
297.502	3.22926
297.442	3.23563
297.382	3.242
297.322	3.24837
297.322	3.24837
297.122	3.2484
296.909	3.24843
296.688	3.24846
293.334	3.3481
293.078	3.34814
292.809	3.34818
292.533	3.34822
287.57	3.50855
287.389	3.51969
287.194	3.53072
286.993	3.54151
281.063	3.7349
280.979	3.74059
280.889	3.74604
280.787	3.75138
279.346	3.80092
279.204	3.80026
279.057	3.79936
278.897	3.79834
274.824	3.91725
274.508	3.92907
274.286	3.93474
273.968	3.93913
263.325	4.18331
263.151	4.18334
262.977	4.18338
262.803	4.18341
258.775	4.24461
258.534	4.24466
258.288	4.2447
258.032	4.24475
252.714	4.29511
252.115	4.29741
251.868	4.30035
251.759	4.30644
244.622	4.2581
244.175	4.25033
243.734	4.24479
243.29	4.23665
242.184	4.22046
241.948	4.21561
241.777	4.2085
241.524	4.19304
235.127	4.08476
235.026	4.08038
234.925	4.07578
234.825	4.07105
234.508	4.06847
234.31	4.06852
234.108	4.06857
233.897	4.06861
232.87	4.03546
232.868	4.03014
232.866	4.0247
232.865	4.01903
232.257	4.00274
231.703	4.00289
231.209	3.9982
230.846	3.98134
