Uv/Vis Spectrum: 4-Benzoylbiphenyl
Formula: C19H14O
CAS: 2128-93-0
Melting point: 101.5-102
Instrument: Unicam SP 700
Origin: INSTITUTE OF ENERGY PROBLEMS OF CHEMICAL PHYSICS, RAS
Wavelength (nm)	Logarithm epsilon
208.276	4.47127
208.78	4.46794
209.282	4.46098
209.782	4.45079
209.944	4.45076
210.284	4.44383
210.944	4.43038
211.283	4.42023
211.445	4.42019
211.783	4.41004
212.28	4.39299
212.442	4.39296
212.779	4.37958
213.099	4.37265
213.594	4.35238
213.934	4.34545
214.251	4.33207
214.751	4.32188
215.248	4.30483
215.428	4.30157
215.745	4.28819
215.927	4.28815
216.246	4.28123
216.583	4.26785
216.745	4.26781
217.084	4.25766
217.424	4.25073
217.586	4.2507
217.924	4.24054
218.086	4.24051
218.426	4.23358
219.088	4.22336
219.59	4.2164
220.252	4.20618
221.095	4.19593
221.759	4.18934
222.765	4.17905
223.108	4.17898
223.772	4.17199
224.274	4.16503
224.938	4.15844
225.443	4.15834
226.448	4.14805
226.79	4.14435
227.616	4.13773
228.301	4.13396
228.805	4.13063
229.468	4.12364
230.477	4.12021
230.981	4.11688
231.806	4.10985
232.651	4.10283
233.659	4.09617
234.162	4.09244
236	4.08884
237.694	4.08164
239.212	4.08497
240.549	4.09116
241.905	4.09452
242.414	4.10088
243.244	4.10434
243.753	4.1107
244.442	4.11419
245.112	4.12052
246.468	4.12388
247.138	4.1302
248.979	4.13346
250.337	4.13965
251.693	4.14301
253.03	4.1492
254.709	4.1525
255.561	4.15878
256.918	4.16214
258.416	4.1683
260.783	4.17146
262.807	4.17751
264.487	4.18081
264.995	4.18716
265.664	4.19066
266.173	4.19702
266.68	4.20054
267.372	4.21049
267.697	4.21366
268.389	4.22361
268.896	4.22714
269.061	4.23356
269.568	4.23709
269.895	4.24348
270.405	4.25347
271.094	4.25697
271.259	4.26339
271.93	4.27011
272.785	4.28326
273.292	4.28679
274.148	4.29994
274.655	4.30306
274.982	4.30986
275.834	4.31655
276.161	4.32294
276.668	4.32647
277.522	4.33639
278.537	4.34627
279.208	4.35259
279.898	4.35932
280.407	4.36608
281.075	4.36917
281.402	4.37596
282.253	4.37902
282.923	4.38575
283.43	4.38887
283.939	4.39563
284.951	4.39866
285.642	4.40538
287.826	4.40817
291.525	4.40744
293.361	4.40061
294.046	4.39684
295.217	4.39338
296.062	4.38635
296.566	4.38302
297.23	4.37603
298.075	4.36941
298.399	4.36934
298.901	4.36238
299.404	4.35905
299.904	4.34846
300.066	4.34843
300.748	4.33821
301.25	4.33165
301.752	4.32469
301.914	4.32466
302.252	4.3145
302.576	4.31444
302.914	4.30428
303.076	4.30425
303.576	4.29406
303.758	4.29402
304.076	4.28387
304.238	4.28384
304.738	4.27365
305.079	4.26673
305.24	4.26669
305.579	4.25654
305.74	4.2565
306.079	4.24635
306.579	4.23616
306.741	4.23613
307.081	4.2296
307.42	4.21945
307.582	4.21942
308.082	4.20923
308.42	4.19867
308.582	4.19864
309.239	4.17833
309.421	4.17829
309.739	4.16814
310.076	4.15476
310.238	4.15473
310.575	4.14134
310.736	4.14131
311.073	4.12752
311.235	4.12749
311.57	4.11088
311.732	4.11085
312.067	4.09383
312.387	4.08691
312.722	4.0703
312.884	4.07026
313.557	4.04309
313.719	4.04306
314.214	4.02279
314.374	4.01912
314.869	3.99885
315.21	3.99232
315.526	3.97854
315.706	3.97528
316.023	3.9619
316.203	3.95823
316.518	3.94162
316.7	3.94158
317.847	3.89051
318.186	3.88036
318.347	3.88032
318.841	3.85682
319.001	3.85356
319.496	3.83329
319.678	3.83325
320.171	3.80934
320.332	3.80608
320.827	3.78581
320.987	3.78255
321.324	3.76876
321.483	3.7655
321.817	3.74526
322.314	3.72821
322.476	3.72818
322.811	3.71116
322.972	3.71113
323.308	3.69452
323.469	3.69449
323.804	3.67747
323.964	3.67421
324.3	3.6572
324.46	3.65394
324.953	3.63003
325.115	3.63
325.45	3.61298
325.61	3.60972
326.103	3.58622
326.263	3.58256
326.599	3.56595
326.759	3.56228
327.096	3.5489
327.256	3.54564
327.589	3.5254
327.749	3.52173
328.082	3.50149
328.244	3.50146
328.578	3.48121
328.739	3.48118
329.073	3.46094
329.233	3.45768
329.568	3.44066
329.728	3.4374
330.063	3.42039
330.225	3.42036
330.56	3.40334
330.722	3.40331
331.055	3.38307
331.217	3.38303
331.552	3.36642
331.712	3.36276
332.049	3.34938
332.209	3.34612
332.544	3.3291
332.706	3.32907
333.041	3.31205
333.203	3.31202
333.538	3.29501
333.7	3.29497
334.035	3.27836
334.197	3.27833
334.532	3.26132
334.692	3.25806
335.028	3.24427
335.19	3.24424
335.525	3.22763
335.687	3.22759
336.022	3.21058
336.184	3.21055
336.519	3.19353
336.681	3.1935
337.016	3.17648
337.178	3.17645
337.493	3.15984
337.675	3.15981
337.991	3.14602
338.171	3.14276
338.488	3.12938
338.67	3.12934
338.985	3.11233
339.167	3.1123
339.82	3.08513
339.982	3.0851
340.477	3.06482
340.659	3.06479
340.976	3.05141
341.156	3.04814
341.473	3.03436
341.654	3.03432
341.969	3.01731
342.151	3.01728
342.468	3.0039
342.648	3.00063
342.965	2.98685
343.465	2.97666
343.802	2.96328
344.122	2.95635
344.617	2.93608
344.957	2.92956
345.612	2.90562
345.793	2.90235
346.111	2.8922
346.291	2.88853
346.61	2.87838
346.79	2.87512
347.108	2.86497
347.29	2.86493
347.787	2.84788
347.949	2.84785
348.447	2.83443
349.604	2.80394
349.766	2.80391
350.263	2.78686
350.445	2.78682
350.945	2.77663
351.445	2.76645
351.762	2.75307
352.105	2.753
352.601	2.73272
352.941	2.7258
353.103	2.72576
353.443	2.71883
353.759	2.70546
353.941	2.70542
354.26	2.69527
354.42	2.69201
354.758	2.68185
354.92	2.68182
355.257	2.66803
355.418	2.668
355.755	2.65462
355.917	2.65458
356.254	2.6412
356.594	2.63427
356.754	2.63101
357.091	2.61723
357.252	2.61719
357.589	2.60381
357.751	2.60378
358.088	2.58999
358.25	2.58996
358.585	2.57335
358.747	2.57332
359.085	2.56316
359.245	2.5595
359.584	2.54934
359.744	2.54608
360.062	2.53593
360.399	2.52255
360.561	2.52251
360.896	2.5055
361.057	2.50547
361.396	2.49531
