Uv/Vis Spectrum: Picene
Formula: C22H14
CAS: 213-46-7
Melting point: 368
Boiling point: 519
Instrument: n.i.g.
Origin: INSTITUTE OF ENERGY PROBLEMS OF CHEMICAL PHYSICS, RAS
Wavelength (nm)	Logarithm epsilon
218.69	2.02
220.56	2.42
221.96	2.76
222.9	2.92
223.83	2.96
224.77	2.969
225.38	2.951
225.71	2.903
225.92	2.858
226.13	2.7
226.88	2.583
228.04	2.52
228.97	2.51
229.91	2.5
230.97	2.509
231.78	2.54
232.72	2.566
234.11	2.59
235.51	2.6
237.85	2.62
238.85	2.628
239.72	2.639
240.19	2.652
240.65	2.708
241.12	2.772
241.4	2.903
241.73	2.937
242.06	2.951
242.52	2.942
242.99	2.923
243.44	2.897
243.93	2.841
244.23	2.8
244.86	2.726
245.28	2.692
245.79	2.671
246.26	2.657
246.73	2.652
247.2	2.643
247.66	2.639
248.13	2.639
248.6	2.639
249.07	2.639
249.53	2.639
250	2.643
250.47	2.652
250.93	2.657
251.4	2.662
252.03	2.67
252.37	2.681
252.87	2.692
253.27	2.708
253.74	2.73
254.21	2.753
254.67	2.772
255.14	2.799
255.61	2.822
256.07	2.836
256.54	2.855
257.01	2.877
257.48	2.905
257.96	2.934
258.46	2.95
258.88	2.96
259.35	2.969
259.81	2.979
260.28	2.983
260.75	2.988
261.21	3.002
261.68	3.047
262.09	3.083
262.59	3.166
263.08	3.282
263.55	3.397
264.02	3.461
264.49	3.539
264.95	3.608
265.42	3.686
265.89	3.787
266.36	3.861
266.95	3.959
267.29	4.012
267.76	4.077
268.08	4.122
268.45	4.17
269.16	4.251
269.63	4.288
270.09	4.32
270.62	4.345
271.03	4.352
271.5	4.352
271.83	4.339
272.43	4.292
272.75	4.272
273.25	4.231
273.83	4.187
274.13	4.159
274.77	4.113
275.23	4.09
275.7	4.072
276.17	4.044
276.64	4.021
277.1	4.008
277.57	3.994
278.04	3.989
278.5	3.985
278.97	3.985
279.44	3.98
279.91	3.98
280.37	3.985
280.84	3.989
281.31	3.994
281.78	4.012
282.24	4.054
282.71	4.123
283.31	4.203
283.64	4.234
284.11	4.247
284.58	4.247
285.05	4.237
285.51	4.228
285.98	4.21
286.45	4.196
286.92	4.187
287.38	4.182
287.85	4.182
288.32	4.182
288.79	4.182
289.25	4.182
289.72	4.182
290.19	4.187
290.65	4.191
291.19	4.203
291.59	4.228
292.06	4.27
292.59	4.331
292.99	4.371
293.46	4.403
293.93	4.44
294.39	4.462
294.86	4.485
295.33	4.513
295.79	4.531
296.26	4.541
296.73	4.55
297.2	4.554
297.66	4.559
298.13	4.554
298.6	4.531
299.07	4.513
299.53	4.499
300	4.49
300.47	4.485
300.93	4.485
301.4	4.485
301.87	4.485
302.34	4.49
302.74	4.494
303.27	4.499
303.74	4.504
304.21	4.508
304.81	4.517
305.23	4.526
305.61	4.541
306.07	4.568
306.54	4.614
307.09	4.681
307.48	4.72
307.94	4.766
308.41	4.807
308.88	4.844
309.35	4.876
309.81	4.908
310.28	4.936
310.75	4.959
311.22	4.973
311.68	4.982
312.15	4.986
312.62	4.991
313.08	4.991
313.51	4.99
314.02	4.986
314.43	4.973
314.95	4.954
315.42	4.931
315.89	4.917
316.36	4.899
316.81	4.886
317.29	4.871
317.76	4.858
318.22	4.844
318.69	4.83
319.14	4.819
319.63	4.812
320.09	4.812
320.56	4.812
321.03	4.812
321.5	4.812
321.96	4.816
322.43	4.816
322.9	4.821
323.36	4.825
323.83	4.83
324.3	4.835
324.77	4.835
325.23	4.835
325.7	4.835
326.17	4.83
326.65	4.82
327.1	4.812
327.57	4.797
328.04	4.784
328.5	4.766
328.97	4.747
329.44	4.72
329.91	4.697
330.37	4.683
330.84	4.674
331.31	4.665
331.78	4.655
332.24	4.651
332.71	4.642
333.18	4.637
333.64	4.637
334.11	4.637
334.58	4.637
335.01	4.635
335.51	4.632
335.98	4.628
336.45	4.628
336.92	4.628
337.38	4.632
337.85	4.637
338.32	4.637
338.79	4.642
339.25	4.646
339.72	4.651
340.19	4.655
340.65	4.655
341.12	4.655
341.59	4.66
342.06	4.669
342.52	4.674
342.99	4.674
343.46	4.674
343.93	4.665
344.39	4.655
344.86	4.642
345.33	4.632
345.79	4.614
346.26	4.6
346.73	4.587
347.2	4.573
347.66	4.565
348.13	4.556
348.6	4.55
349.06	4.54
349.53	4.531
350	4.527
350.46	4.523
350.92	4.521
351.38	4.519
351.87	4.516
352.34	4.513
352.81	4.511
353.27	4.508
353.74	4.506
354.21	4.504
354.67	4.504
355.14	4.504
355.61	4.504
356.07	4.504
356.54	4.504
357.01	4.504
357.48	4.504
357.94	4.504
358.41	4.504
358.88	4.504
359.36	4.505
359.86	4.507
360.31	4.509
360.82	4.513
361.3	4.516
361.73	4.519
362.15	4.522
362.62	4.527
363.08	4.531
363.55	4.536
364.05	4.541
364.49	4.545
364.94	4.548
365.37	4.552
365.8	4.557
366.36	4.564
366.82	4.568
367.29	4.573
