Uv/Vis Spectrum: 1,2,3,4-Tetrahydroanthracene
Formula: C14H14
CAS: 2141-42-6
Melting point: 100.8-101
Instrument: Unicam SP 500
Origin: INSTITUTE OF ENERGY PROBLEMS OF CHEMICAL PHYSICS, RAS
Wavelength (nm)	Logarithm epsilon
199.94	4.046
200.11	4.048
200.29	4.052
200.46	4.055
200.63	4.059
200.81	4.061
201.25	4.074
201.77	4.084
202.31	4.099
202.84	4.114
203.38	4.129
203.92	4.144
204.46	4.155
205	4.166
205.55	4.181
206.1	4.193
206.65	4.206
207.21	4.226
207.77	4.236
208.33	4.251
208.9	4.266
209.47	4.285
210.04	4.298
210.62	4.315
211.2	4.335
211.78	4.352
212.36	4.373
212.95	4.394
213.54	4.412
214.14	4.433
214.73	4.452
215.33	4.476
215.94	4.501
216.55	4.518
217.16	4.54
217.77	4.565
218.39	4.591
219.01	4.613
219.64	4.64
220.27	4.666
220.9	4.7
221.54	4.741
222.18	4.777
222.82	4.82
223.47	4.841
224.12	4.865
224.78	4.876
225.43	4.888
226.1	4.905
226.76	4.923
227.43	4.944
228.11	4.957
228.79	4.98
229.47	4.997
230.16	5.014
230.85	5.021
231.54	4.995
232.24	4.936
233.04	4.841
233.92	4.722
234.77	4.592
235.43	4.472
236.16	4.324
237.01	4.136
237.75	3.988
238.48	3.845
239.23	3.689
239.97	3.588
240.72	3.494
241.48	3.426
242.24	3.362
243.01	3.31
243.78	3.261
244.47	3.228
245.31	3.197
246.13	3.183
246.91	3.178
247.7	3.178
248.5	3.178
249.34	3.184
250.12	3.195
250.94	3.208
251.76	3.225
252.58	3.244
253.42	3.27
254.25	3.3
255.1	3.33
255.95	3.353
256.8	3.37
257.66	3.372
258.53	3.375
259.4	3.383
260.28	3.392
261.16	3.405
262.05	3.426
262.95	3.458
263.85	3.488
264.76	3.511
265.67	3.531
266.59	3.55
267.52	3.554
268.46	3.558
269.4	3.561
270.34	3.561
271.3	3.569
272.26	3.582
273.22	3.618
274.2	3.648
275.18	3.668
276.17	3.683
277.16	3.683
278.17	3.668
279.18	3.648
280.19	3.633
281.22	3.623
282.25	3.623
283.29	3.633
284.34	3.653
285.39	3.678
286.46	3.691
287.53	3.685
288.61	3.659
289.69	3.606
290.79	3.544
291.89	3.501
293	3.477
294.12	3.462
295.25	3.456
296.39	3.46
297.54	3.484
298.69	3.486
299.88	3.454
301.03	3.402
301.43	3.379
301.82	3.351
302.22	3.321
302.61	3.287
303.03	3.243
303.41	3.184
303.8	3.131
304.21	3.073
304.61	3.033
305.01	2.998
305.42	2.956
305.82	2.917
306.23	2.879
306.51	2.856
307.11	2.815
307.84	2.784
308.48	2.774
308.89	2.795
309.31	2.829
309.68	2.864
310.14	2.881
310.56	2.889
310.97	2.887
311.39	2.876
311.81	2.857
312.24	2.829
312.66	2.787
312.96	2.743
313.29	2.692
313.72	2.654
314.15	2.646
314.58	2.643
315.01	2.639
315.4	2.629
315.87	2.605
316.3	2.584
316.74	2.564
317.13	2.542
317.6	2.527
318.05	2.519
318.49	2.519
318.95	2.536
319.37	2.558
319.81	2.579
320.26	2.584
320.7	2.584
321.15	2.577
321.59	2.562
322.04	2.552
322.42	2.584
322.75	2.651
323.17	2.724
323.62	2.791
324.09	2.849
324.5	2.874
324.96	2.893
325.43	2.889
325.98	2.853
326.37	2.785
326.8	2.703
327.3	2.528
327.76	2.365
328.4	2.126
328.9	1.9
329.32	1.71
329.8	1.505
330.34	1.269
330.87	1.027
