Uv/Vis Spectrum: 2,2,5,5-Tetramethyl-1-pyrrolidinylo
Formula: C9H16NO3
CAS: 2154-68-9
Melting point: 193
Instrument: SF-16
Origin: INSTITUTE OF ENERGY PROBLEMS OF CHEMICAL PHYSICS, RAS
Wavelength (nm)	Logarithm epsilon
209.45	3.281
210.57	3.286
212.23	3.292
213.35	3.297
214.46	3.302
218.35	3.313
220.57	3.334
222.8	3.345
225.02	3.36
227.25	3.371
229.47	3.387
231.7	3.387
233.92	3.392
236.14	3.392
238.37	3.387
240.59	3.376
242.82	3.36
245.04	3.345
247.26	3.323
249.49	3.297
251.71	3.271
253.94	3.234
256.16	3.186
258.39	3.138
260.61	3.086
262.83	3.017
265.06	2.943
267.28	2.858
269.51	2.779
271.73	2.7
273.96	2.605
276.18	2.525
278.4	2.43
280.63	2.351
282.85	2.282
285.08	2.208
287.3	2.124
289.52	2.071
