Uv/Vis Spectrum: 9-Fluorenone oxime
Formula: C13H9NO
CAS: 2157-52-0
Melting point: 195
Instrument: unknown
Origin: INSTITUTE OF ENERGY PROBLEMS OF CHEMICAL PHYSICS, RAS
Wavelength (nm)	Logarithm epsilon
234.1	4.393
235.03	4.368
236.29	4.343
237.46	4.323
238.74	4.307
240.47	4.297
241.99	4.298
243.5	4.306
244.87	4.323
246.19	4.343
247.37	4.364
248.71	4.376
250.05	4.389
251.56	4.393
253.07	4.393
254.59	4.393
256.1	4.384
257.44	4.368
258.78	4.347
259.96	4.327
261.3	4.306
262.48	4.285
263.48	4.261
264.49	4.236
265.67	4.211
266.67	4.186
267.51	4.153
268.35	4.12
269.02	4.087
270.37	4.067
271.88	4.054
273.22	4.038
274.57	4.017
275.74	3.997
276.92	3.976
278.09	3.951
279.27	3.931
280.61	3.914
281.95	3.902
283.46	3.897
284.97	3.893
286.49	3.889
288	3.889
289.51	3.893
291.02	3.897
292.36	3.91
293.54	3.931
294.88	3.947
296.22	3.959
297.57	3.976
299.08	3.984
300.59	3.988
302.1	3.984
303.44	3.972
304.59	3.954
305.63	3.922
305.96	3.91
306.46	3.889
306.97	3.873
307.47	3.852
307.98	3.823
308.48	3.79
308.98	3.765
309.49	3.732
309.99	3.704
310.49	3.675
311	3.646
311.5	3.617
312.01	3.6
312.51	3.613
313.01	3.658
313.52	3.691
314.02	3.708
314.56	3.708
315.03	3.691
315.53	3.65
316.03	3.6
316.54	3.538
317.04	3.477
317.55	3.439
318.05	3.394
318.55	3.345
319.06	3.274
319.56	3.208
319.92	3.173
320.57	3.113
320.94	3.08
321.58	3.006
322.08	2.957
322.58	2.919
323.09	2.87
323.59	2.829
324.09	2.771
324.6	2.73
325.23	2.689
326.44	2.631
327.25	2.596
328.15	2.57
329.14	2.542
330.47	2.519
331.94	2.504
333.5	2.499
335.01	2.49
336.52	2.49
338.03	2.494
339.42	2.498
341.04	2.508
342.39	2.515
343.9	2.523
345.25	2.536
346.76	2.544
348.1	2.556
349.61	2.565
351.12	2.565
352.64	2.569
354.15	2.573
355.66	2.577
357.17	2.578
358.68	2.573
360.19	2.56
361.51	2.548
363.04	2.536
364.56	2.523
366.07	2.511
367.41	2.494
368.75	2.478
370.1	2.461
371.44	2.441
372.78	2.42
374.13	2.399
375.47	2.379
376.81	2.358
378.16	2.338
379.24	2.317
380.51	2.292
381.51	2.267
382.52	2.243
383.7	2.218
384.7	2.193
385.88	2.168
386.89	2.144
387.89	2.119
388.9	2.094
389.91	2.069
390.91	2.04
391.92	2.012
392.93	1.983
393.79	1.958
394.78	1.929
395.78	1.9
396.62	1.871
