Uv/Vis Spectrum: 2-methyl-2H-pyrazolo[3,4-b]pyrazine
Formula: C6H6N4
CAS: 21616-65-9
Melting point: 152-154
Instrument: Unicam SP-800
Origin: INSTITUTE OF ENERGY PROBLEMS OF CHEMICAL PHYSICS, RAS
Wavelength (nm)	Logarithm epsilon
208.032	4.036
209.032	4.061
210.032	4.085
211.032	4.107
212.032	4.126
213.032	4.14
214.032	4.15
215.032	4.154
216.032	4.152
217.032	4.143
218.032	4.124
219.032	4.094
219.801	4.06
220.801	4.016
221.801	3.971
222.801	3.927
223.801	3.882
224.801	3.838
225.801	3.795
226.801	3.753
227.801	3.711
228.801	3.671
229.801	3.63
230.801	3.59
231.801	3.55
232.801	3.509
233.801	3.466
234.801	3.422
235.898	3.369
236.898	3.326
237.898	3.289
238.898	3.258
239.898	3.233
240.898	3.213
241.898	3.198
242.898	3.186
243.898	3.177
244.898	3.171
245.898	3.169
246.898	3.169
247.898	3.172
248.898	3.179
249.898	3.189
250.898	3.202
251.898	3.219
252.898	3.238
253.898	3.261
254.938	3.282
255.599	3.3
256.599	3.327
257.599	3.35
258.599	3.371
259.599	3.391
260.599	3.41
261.599	3.429
262.599	3.447
263.599	3.467
264.599	3.487
265.599	3.508
266.599	3.531
267.599	3.556
268.599	3.582
269.599	3.609
270.599	3.638
271.599	3.669
272.599	3.701
273.277	3.724
274.277	3.763
275.277	3.797
276.277	3.827
277.277	3.853
278.277	3.876
279.277	3.897
280.277	3.915
281.277	3.931
282.277	3.946
283.277	3.958
284.277	3.969
285.277	3.979
286.277	3.987
287.277	3.993
288.277	3.999
289.277	4.003
290.277	4.005
291.277	4.007
292.277	4.008
293.277	4.007
294.277	4.005
295.277	4.002
296.277	3.997
297.277	3.991
298.277	3.984
299.12	3.977
300.12	3.966
301.12	3.954
302.12	3.939
303.12	3.924
304.12	3.907
305.12	3.89
306.12	3.872
307.12	3.853
308.12	3.835
309.12	3.816
310.12	3.798
311.12	3.781
312.12	3.764
313.12	3.748
314.12	3.732
315.12	3.718
316.12	3.704
317.12	3.691
318.12	3.679
319.12	3.668
320.12	3.657
321.12	3.646
322.12	3.636
322.915	3.628
323.915	3.617
324.915	3.607
325.915	3.596
326.915	3.585
327.915	3.573
328.915	3.562
329.915	3.55
330.915	3.537
331.915	3.525
332.915	3.512
333.915	3.5
334.915	3.487
335.915	3.475
336.915	3.463
337.915	3.452
338.97	3.441
339.97	3.431
340.97	3.421
341.97	3.411
342.97	3.401
343.97	3.391
344.97	3.379
345.97	3.365
346.057	3.364
347.057	3.349
348.057	3.334
349.057	3.318
350.057	3.302
351.057	3.286
352.057	3.27
353.057	3.253
354.057	3.235
355.057	3.214
356.057	3.189
