Uv/Vis Spectrum: N-(1,2,3,4-tetrahydro-7-methyl-2,4-dioxobenzo[g]pteridin-8-yl)acetamide
Formula: C13H11N5O3
CAS: 21620-15-5
Instrument: Hitachi EPS-3T
Origin: INSTITUTE OF ENERGY PROBLEMS OF CHEMICAL PHYSICS, RAS
Wavelength (nm)	Logarithm epsilon
246.935	4.466
247.935	4.471
248.935	4.476
249.935	4.481
250.935	4.486
251.935	4.492
252.935	4.499
253.935	4.505
254.935	4.512
255.935	4.518
256.935	4.524
257.935	4.528
258.935	4.531
259.935	4.532
260.935	4.53
261.935	4.524
262.985	4.519
263.985	4.496
264.985	4.472
265.985	4.446
266.985	4.42
267.985	4.391
268.985	4.361
269.985	4.329
270.985	4.294
271.985	4.257
272.112	4.249
273.112	4.218
274.112	4.183
275.112	4.144
276.112	4.099
277.112	4.05
278.112	3.995
279.112	3.934
280.112	3.866
281.112	3.791
282.112	3.707
283.112	3.615
284.112	3.515
284.7	3.427
285.7	3.36
286.7	3.292
287.7	3.223
288.7	3.153
289.7	3.083
290.7	3.013
291.7	2.945
292.7	2.879
293.7	2.818
294.7	2.764
295.7	2.72
296.7	2.69
297.7	2.674
298.7	2.674
299.7	2.689
300.7	2.716
301.7	2.753
302.7	2.796
303.7	2.843
304.7	2.891
305.7	2.94
306.7	2.988
307.7	3.035
308.7	3.079
309.7	3.122
310.7	3.162
311.7	3.2
312.7	3.235
313.7	3.269
314.7	3.3
315.7	3.33
316.7	3.357
317.7	3.383
318.7	3.407
319.7	3.429
320.7	3.451
321.7	3.471
322.7	3.491
323.7	3.51
324.7	3.528
325.7	3.546
326.7	3.564
328.5	3.595
329.5	3.623
330.5	3.647
331.5	3.669
332.5	3.688
333.5	3.705
334.5	3.721
335.5	3.735
336.5	3.749
337.5	3.762
338.5	3.774
339.5	3.786
340.5	3.798
341.5	3.809
342.5	3.821
343.5	3.833
344.5	3.845
345.5	3.856
346.5	3.869
347.5	3.881
348.5	3.894
349.5	3.907
350.5	3.92
351.5	3.933
352.5	3.946
353.5	3.96
354.5	3.974
355.5	3.988
356.5	4.002
357.5	4.016
358.5	4.031
359.5	4.045
360.5	4.059
361.5	4.073
362.5	4.087
363.5	4.101
364.5	4.114
365.5	4.128
366.209	4.138
367.209	4.15
368.209	4.162
369.209	4.175
370.209	4.188
371.209	4.201
372.209	4.214
373.209	4.227
374.209	4.239
375.209	4.251
376.209	4.262
377.209	4.272
378.209	4.282
379.209	4.29
380.209	4.297
381.209	4.303
382.209	4.307
383.209	4.31
384.209	4.311
385.209	4.31
386.209	4.307
387.209	4.301
388.209	4.292
389.868	4.273
390.868	4.259
391.868	4.24
392.868	4.217
393.868	4.191
394.868	4.162
395.868	4.132
396.868	4.101
397.868	4.071
398.868	4.042
399.868	4.016
399.883	4.013
400.883	3.992
401.883	3.974
402.883	3.958
403.883	3.943
404.883	3.929
405.883	3.915
406.883	3.901
407.883	3.887
408.883	3.872
409.883	3.856
410.883	3.84
411.883	3.823
412.883	3.806
413.883	3.788
414.883	3.77
415.883	3.752
416.883	3.734
417.883	3.715
418.883	3.697
419.883	3.679
420.883	3.659
421.883	3.637
422.227	3.627
423.227	3.599
424.227	3.571
425.227	3.541
426.227	3.511
427.227	3.481
428.227	3.45
429.227	3.42
430.227	3.389
431.227	3.359
432.227	3.329
433.227	3.299
434.227	3.268
435.227	3.237
436.227	3.204
437.227	3.17
438.227	3.133
439.227	3.093
440.227	3.049
441.227	3
442.227	2.946
443.227	2.887
444.227	2.824
445.227	2.762
446.227	2.708
