Uv/Vis Spectrum: Diallyl disulphide
Formula: C6H10S2
CAS: 2179-57-9
Boiling point: 78-80
Instrument: Zeiss PMQ II
Origin: INSTITUTE OF ENERGY PROBLEMS OF CHEMICAL PHYSICS, RAS
Wavelength (nm)	Logarithm epsilon
182.24	4.357
182.31	4.357
182.39	4.355
182.46	4.355
182.53	4.355
182.6	4.352
182.67	4.352
182.74	4.35
182.81	4.35
182.88	4.35
182.96	4.348
183.03	4.348
183.1	4.348
183.17	4.346
183.24	4.346
183.32	4.346
183.39	4.344
183.46	4.344
183.53	4.342
183.6	4.342
183.68	4.342
183.75	4.34
183.82	4.34
183.89	4.34
183.96	4.337
184.04	4.337
184.11	4.337
184.18	4.335
184.25	4.335
184.33	4.333
184.4	4.333
184.76	4.32
185.28	4.314
185.79	4.306
186.31	4.297
186.83	4.286
187.35	4.276
187.88	4.265
188.41	4.254
188.94	4.244
189.48	4.229
190.02	4.216
190.56	4.201
191.11	4.188
191.66	4.173
192.21	4.159
192.76	4.146
193.32	4.127
193.88	4.114
194.44	4.095
195.01	4.08
195.58	4.063
196.16	4.046
196.74	4.031
197.27	4.016
197.9	4.001
198.49	3.988
199.08	3.975
199.68	3.96
200.27	3.95
200.88	3.939
201.48	3.928
202.09	3.918
202.71	3.907
203.32	3.897
203.94	3.888
204.57	3.879
205.2	3.869
205.83	3.865
206.46	3.856
207.1	3.852
207.75	3.845
208.4	3.841
209.05	3.835
209.7	3.83
210.37	3.824
211.03	3.816
211.7	3.809
212.37	3.801
213.05	3.79
213.73	3.779
214.42	3.769
215.11	3.758
215.8	3.743
216.5	3.73
217.21	3.718
217.91	3.701
218.63	3.688
219.35	3.671
220.07	3.656
220.8	3.637
221.53	3.62
222.26	3.6
223.01	3.585
223.75	3.566
224.51	3.545
225.26	3.526
226.02	3.5
226.79	3.479
227.56	3.456
228.34	3.43
229.13	3.407
229.91	3.381
230.71	3.355
231.51	3.326
232.31	3.302
233.12	3.272
233.94	3.249
234.76	3.221
235.59	3.198
236.42	3.172
237.26	3.149
238.11	3.127
238.96	3.106
239.82	3.078
240.68	3.059
241.55	3.038
242.43	3.019
243.31	2.998
244.2	2.985
245.1	2.966
246	2.953
246.91	2.942
247.83	2.929
248.75	2.917
249.68	2.902
250.62	2.893
251.56	2.883
252.51	2.872
253.47	2.861
254.43	2.848
255.41	2.838
256.39	2.821
257.38	2.808
258.37	2.797
259.37	2.78
260.39	2.767
261.4	2.75
262.43	2.738
263.47	2.718
264.51	2.704
265.56	2.684
266.62	2.667
267.69	2.644
268.77	2.625
269.85	2.606
270.95	2.584
272.05	2.563
273.16	2.542
274.28	2.52
275.42	2.493
276.56	2.471
277.71	2.444
278.86	2.42
280.03	2.388
281.21	2.363
282.4	2.335
283.6	2.305
284.81	2.278
286.03	2.248
287.26	2.214
288.5	2.182
289.75	2.15
291.01	2.113
292.29	2.084
293.57	2.052
294.87	2.02
296.17	1.988
297.49	1.952
298.82	1.917
300.17	1.886
301.52	1.847
302.89	1.811
304.27	1.766
305.66	1.724
307.07	1.683
308.48	1.647
309.92	1.6
311.36	1.56
312.82	1.517
314.29	1.479
315.78	1.434
317.28	1.387
318.95	1.343
320.43	1.303
321.78	1.269
323.42	1.227
