Uv/Vis Spectrum: Benzene, (2,4-cyclopentadien-1-ylidenephenylmethyl)-
Formula: C18H14
CAS: 2175-90-8
Melting point: 81.5-82
Instrument: Zeiss PMQ II
Origin: INSTITUTE OF ENERGY PROBLEMS OF CHEMICAL PHYSICS, RAS
Wavelength (nm)	Logarithm epsilon
217.02	3.518
217.32	3.537
217.53	3.556
217.83	3.575
218.04	3.594
218.24	3.614
218.55	3.633
218.76	3.652
218.96	3.671
219.27	3.69
219.48	3.709
219.69	3.729
219.89	3.748
220.21	3.767
220.41	3.786
220.62	3.805
221.04	3.822
221.36	3.842
221.89	3.859
222.52	3.873
223.27	3.884
224.13	3.895
224.89	3.908
225.65	3.918
226.42	3.931
227.2	3.944
227.75	3.959
228.42	3.971
229.1	3.984
229.78	3.999
230.46	4.014
231.15	4.027
231.84	4.042
232.53	4.054
233.23	4.067
234.05	4.08
234.76	4.093
235.6	4.106
236.43	4.116
237.4	4.127
238.37	4.138
239.35	4.144
240.34	4.152
241.34	4.159
242.47	4.163
243.62	4.165
244.77	4.169
245.93	4.165
247.11	4.163
248.16	4.152
249.23	4.144
250.3	4.135
251.11	4.12
252.06	4.11
252.89	4.097
253.58	4.082
254.41	4.069
255.25	4.057
255.95	4.042
256.8	4.027
257.65	4.012
258.36	3.997
259.23	3.982
259.95	3.965
260.83	3.95
261.56	3.935
262.3	3.92
263.04	3.905
263.93	3.89
264.84	3.876
265.74	3.861
266.66	3.848
267.58	3.833
268.66	3.82
269.75	3.807
270.85	3.795
271.8	3.782
273.08	3.771
274.36	3.763
275.83	3.756
277.31	3.754
278.8	3.752
280.26	3.756
281.85	3.765
283.22	3.773
284.43	3.784
285.65	3.795
286.71	3.807
287.95	3.82
289.02	3.833
289.93	3.848
291.01	3.861
292.11	3.873
293.03	3.888
294.14	3.901
295.26	3.914
296.39	3.929
297.72	3.942
298.88	3.954
300.22	3.967
301.58	3.98
302.56	3.995
303.55	4.01
304.54	4.027
305.34	4.044
305.94	4.061
306.55	4.08
307.36	4.097
307.97	4.116
308.79	4.133
309.4	4.152
310.43	4.169
311.27	4.187
312.1	4.204
313.15	4.221
314.21	4.238
315.49	4.253
316.56	4.27
317.86	4.284
318.95	4.299
320.27	4.312
321.82	4.325
323.38	4.336
325.19	4.342
327.25	4.34
329.34	4.333
331.21	4.323
333.11	4.312
334.55	4.299
335.75	4.282
336.97	4.267
337.95	4.25
338.93	4.233
339.68	4.216
340.42	4.199
341.17	4.182
341.92	4.165
342.68	4.146
343.44	4.127
344.2	4.11
344.71	4.091
345.36	4.074
345.99	4.054
346.51	4.035
347.11	4.016
347.54	3.999
348.06	3.98
348.59	3.961
349.04	3.943
349.63	3.925
350.16	3.905
350.69	3.886
351.22	3.867
352.01	3.848
352.55	3.829
353.08	3.81
353.62	3.79
354.16	3.771
354.7	3.752
355.24	3.733
355.85	3.715
356.41	3.696
356.92	3.676
357.42	3.658
357.97	3.639
358.53	3.62
359.08	3.602
359.64	3.584
360.19	3.565
360.75	3.545
361.31	3.526
362.15	3.509
362.72	3.49
363.29	3.471
363.85	3.452
364.42	3.433
365	3.413
365.57	3.394
366.15	3.375
366.72	3.356
367.3	3.337
367.88	3.318
368.47	3.298
369.05	3.279
369.74	3.258
370.41	3.238
370.82	3.224
371.41	3.205
372.3	3.186
372.9	3.166
373.5	3.147
374.1	3.128
374.7	3.109
375.3	3.09
375.91	3.071
376.52	3.051
377.13	3.032
377.74	3.013
378.36	2.994
378.97	2.975
379.9	2.956
380.52	2.936
381.15	2.917
381.77	2.898
382.4	2.879
383.34	2.862
383.98	2.843
384.61	2.824
385.25	2.804
385.89	2.785
386.53	2.766
387.17	2.747
387.82	2.728
388.47	2.709
389.44	2.689
390.1	2.67
391.08	2.651
391.41	2.632
392.07	2.613
393.06	2.596
393.73	2.577
395.07	2.56
396.41	2.542
398.45	2.528
401.2	2.517
403.99	2.508
406.81	2.5
409.68	2.491
412.59	2.485
415.53	2.476
418.52	2.466
421.56	2.457
424.64	2.447
427.37	2.436
430.13	2.425
432.53	2.413
434.96	2.4
437.83	2.387
440.73	2.374
442.83	2.359
445.37	2.347
447.95	2.332
450.11	2.317
452.3	2.302
454.51	2.285
456.74	2.27
458.54	2.253
460.36	2.236
462.19	2.219
464.49	2.202
465.89	2.185
467.76	2.168
469.18	2.151
471.08	2.134
472.52	2.117
