Uv/Vis Spectrum: Triphenylene
Formula: C18H12
CAS: 217-59-4
Melting point: 199
Boiling point: 425
Instrument: Zeiss PMQ II
Origin: INSTITUTE OF ENERGY PROBLEMS OF CHEMICAL PHYSICS, RAS
Wavelength (nm)	Logarithm epsilon
345.011	1.43054
344.734	1.4624
344.243	1.48356
343.967	1.52409
343.478	1.54525
343.203	1.58144
342.716	1.60489
342.442	1.65588
341.957	1.66862
341.685	1.71323
341.202	1.73872
340.932	1.7665
340.451	1.78129
340.181	1.80041
339.703	1.81111
339.464	1.8259
338.957	1.83456
338.72	1.84935
338.216	1.85572
337.979	1.896
337.477	1.9429
337.242	2.11088
336.742	2.19373
336.507	2.32781
336.01	2.3872
335.776	2.45093
335.281	2.46801
335.048	2.49146
334.324	2.4935
334.063	2.51695
333.832	2.49146
333.343	2.48942
332.883	2.42773
332.625	2.42544
332.168	2.35967
331.911	2.35738
331.455	2.25542
331.228	2.25338
330.746	2.17461
330.265	2.17257
329.814	2.17028
329.112	2.17665
328.86	2.20647
328.413	2.22355
328.162	2.25338
327.716	2.27249
327.466	2.30436
327.023	2.32781
326.553	2.36604
326.332	2.36401
325.865	2.34259
325.398	2.34055
324.96	2.3171
324.714	2.31506
324.278	2.29595
323.816	2.29365
323.139	2.29161
322.465	2.30002
322.25	2.32144
321.793	2.33622
321.579	2.36401
321.125	2.37675
320.911	2.40632
320.459	2.42544
320.247	2.43614
320.034	2.46597
319.584	2.47871
319.135	2.50854
318.714	2.51261
318.478	2.52332
318.478	2.54244
318.268	2.52128
317.823	2.49987
317.614	2.49783
317.171	2.42773
316.962	2.42544
316.521	2.36808
316.314	2.36604
315.668	2.35967
315.256	2.36171
314.614	2.37675
314.384	2.40224
313.975	2.41703
313.745	2.44685
313.338	2.46801
313.11	2.49146
312.704	2.51058
312.476	2.51899
312.073	2.52128
311.846	2.52765
311.218	2.52969
310.593	2.53607
310.393	2.5404
309.97	2.54677
309.771	2.55518
309.349	2.55952
309.151	2.5743
308.756	2.58067
308.534	2.59979
308.14	2.60846
307.919	2.62758
307.527	2.63828
307.307	2.6574
306.916	2.67015
306.697	2.69768
306.308	2.71883
306.09	2.74866
305.702	2.77211
305.485	2.81901
305.099	2.85087
304.882	2.91893
304.498	2.94443
304.282	2.9847
303.899	3.01452
303.684	3.05276
303.303	3.07188
303.088	3.09329
302.709	3.11445
302.495	3.13153
302.117	3.14631
301.928	3.1611
301.527	3.1718
301.339	3.18684
300.94	3.19525
300.753	3.20596
300.355	3.21641
300.169	3.22508
299.773	3.23145
299.587	3.23986
299.192	3.24827
299.007	3.25694
298.614	3.26331
298.43	3.27402
298.038	3.2781
297.855	3.2888
297.465	3.29722
297.282	3.30792
296.893	3.31633
296.711	3.33341
296.324	3.34183
296.142	3.36324
295.757	3.37802
295.576	3.40785
295.192	3.4313
295.012	3.47795
294.629	3.48432
294.45	3.53326
294.069	3.5715
293.89	3.59699
293.51	3.62477
293.332	3.66505
292.954	3.68646
292.776	3.7224
292.4	3.73744
292.223	3.76497
291.848	3.78409
291.671	3.80958
291.297	3.82258
291.122	3.84807
290.749	3.86081
290.575	3.88197
290.203	3.89268
290.029	3.91383
289.659	3.92658
289.486	3.95207
289.139	3.96482
288.945	4.00101
288.599	4.00535
288.406	4.03287
288.062	4.05633
287.868	4.08386
287.526	4.09686
287.333	4.11164
286.992	4.11801
286.63	4.12235
286.46	4.12872
286.099	4.13509
285.93	4.14351
285.402	4.16058
285.212	4.20315
284.876	4.2136
284.519	4.22227
283.996	4.22227
283.475	4.21157
283.143	4.20723
282.956	4.19882
282.625	4.19041
282.439	4.1797
282.109	4.17103
281.924	4.16262
281.595	4.15625
281.411	4.14784
281.083	4.14351
280.899	4.13713
280.573	4.13509
280.064	4.12872
278.369	4.12872
278.049	4.1328
277.709	4.13509
277.55	4.14147
277.211	4.14784
277.052	4.15829
276.715	4.16899
276.556	4.18607
276.22	4.19041
276.062	4.20086
275.727	4.20953
275.57	4.21794
274.923	4.23068
274.747	4.23909
273.948	4.25413
273.774	4.26051
273.135	4.26459
272.346	4.26255
272.019	4.25821
270.591	4.25617
270.269	4.26051
269.797	4.26255
269.327	4.26688
269.027	4.26892
268.56	4.27325
267.629	4.27529
267.315	4.27963
267.019	4.28166
266.558	4.286
266.246	4.29033
265.935	4.29874
265.642	4.30511
265.478	4.31353
265.186	4.3199
265.023	4.33265
264.732	4.33902
264.569	4.34768
264.279	4.3561
264.117	4.36884
263.828	4.37751
263.666	4.38796
263.379	4.39867
263.217	4.41778
262.93	4.42849
262.77	4.44761
262.484	4.46035
262.324	4.4838
262.039	4.49859
261.897	4.52612
261.595	4.5432
261.454	4.57302
261.153	4.59647
261.012	4.64949
260.713	4.67728
260.572	4.73463
260.274	4.76853
260.134	4.83022
259.836	4.85367
259.696	4.90261
259.4	4.92811
259.261	4.9875
258.671	5.11087
258.394	5.1746
258.1	5.1746
257.808	5.18097
257.67	5.18097
256.967	5.16415
256.814	5.16186
255.827	5.01095
255.692	5.00891
255.405	4.97705
255.27	4.97475
254.983	4.94085
254.849	4.93881
254.563	4.91103
254.429	4.90899
254.145	4.8812
254.011	4.8812
253.727	4.85801
253.594	4.85801
253.312	4.83659
253.179	4.83659
252.897	4.81748
252.765	4.81544
252.484	4.79836
251.531	4.79403
251.122	4.80473
250.991	4.80473
250.714	4.8111
250.584	4.81314
250.309	4.82614
250.179	4.82818
249.904	4.83889
249.774	4.84093
249.5	4.85801
249.371	4.86005
249.098	4.8835
248.97	4.8835
248.697	4.88987
248.17	4.87279
248.027	4.87075
247.772	4.84297
247.645	4.84093
247.376	4.81544
247.249	4.81544
246.98	4.78995
246.854	4.78995
246.586	4.76216
246.46	4.76216
246.194	4.74101
246.068	4.74101
245.802	4.71755
245.677	4.71755
245.412	4.69843
245.287	4.6964
245.023	4.67932
244.898	4.67728
244.635	4.66224
244.511	4.6602
244.248	4.64108
244.125	4.64108
243.863	4.62834
243.74	4.62834
243.478	4.60922
243.356	4.60922
243.095	4.59647
242.973	4.59647
242.592	4.58577
242.333	4.57939
241.954	4.57506
241.576	4.56665
241.334	4.56461
240.958	4.56028
240.075	4.53249
239.955	4.53249
239.702	4.51133
239.583	4.50929
239.331	4.48788
