Uv/Vis Spectrum: Chrysene
Formula: C18H12
CAS: 218-01-9
Melting point: 258.2
Boiling point: 448
Instrument: n.i.g.
Origin: INSTITUTE OF ENERGY PROBLEMS OF CHEMICAL PHYSICS, RAS
Wavelength (nm)	Logarithm epsilon
202.183	3.84084
202.864	3.86461
203.544	3.88838
204.222	3.91218
204.898	3.93598
205.572	3.95979
206.246	3.98361
206.918	4.00744
207.59	4.03127
208.26	4.0551
208.931	4.07893
209.601	4.10276
210.27	4.12658
210.94	4.15041
211.609	4.17422
212.28	4.19802
212.95	4.22181
213.621	4.24559
214.294	4.26935
214.967	4.2931
215.641	4.31683
216.317	4.34054
216.994	4.36422
217.673	4.38788
218.354	4.41151
218.354	4.41151
219.388	4.42414
220.381	4.42678
221.329	4.42107
222.228	4.40867
223.076	4.39121
223.868	4.37034
224.601	4.3477
225.272	4.32493
225.878	4.30369
226.415	4.28561
226.879	4.27233
226.879	4.27233
227.618	4.2448
228.358	4.21726
229.097	4.18972
229.837	4.16216
230.578	4.13459
231.32	4.10701
232.062	4.07939
232.806	4.05176
233.552	4.02409
233.552	4.02409
234.643	4.00149
235.812	3.98929
237.538	3.98925
237.538	3.98925
238.577	4.00998
239.418	4.03372
240.122	4.05957
240.75	4.08662
241.365	4.11398
242.028	4.14077
242.8	4.16607
243.743	4.18901
243.743	4.18901
244.768	4.1899
245.623	4.19302
246.546	4.20355
246.546	4.20355
246.998	4.22992
247.451	4.25628
247.903	4.28265
248.356	4.30902
248.808	4.33538
249.261	4.36174
249.713	4.38811
250.166	4.41447
250.619	4.44083
251.071	4.46718
251.524	4.49354
251.977	4.51989
252.431	4.54624
252.884	4.57259
253.338	4.59893
253.791	4.62527
254.245	4.65161
254.699	4.67794
255.153	4.70427
255.607	4.7306
256.062	4.75692
256.517	4.78323
256.972	4.80954
256.972	4.80954
257.682	4.83228
258.243	4.84188
258.711	4.84162
259.139	4.83478
259.582	4.82462
260.094	4.81442
260.729	4.80746
261.542	4.80701
261.542	4.80701
262.006	4.83576
262.472	4.86451
262.938	4.89326
263.406	4.92201
263.875	4.95075
264.345	4.9795
264.815	5.00825
265.285	5.037
265.756	5.06574
265.756	5.06574
266.307	5.08752
266.645	5.09771
267.061	5.10505
267.061	5.10505
267.298	5.10447
267.54	5.10379
267.791	5.1029
267.791	5.1029
268.07	5.05979
268.329	5.01988
268.568	4.98292
268.791	4.94867
268.997	4.91689
269.19	4.88732
269.37	4.85972
269.54	4.83385
269.702	4.80945
269.856	4.78629
270.004	4.76412
270.149	4.7427
270.292	4.72177
270.434	4.70109
270.577	4.68041
270.724	4.6595
270.875	4.6381
271.032	4.61597
271.198	4.59286
271.373	4.56853
271.559	4.54273
271.759	4.51521
271.973	4.48574
272.204	4.45406
272.452	4.41992
272.721	4.38309
272.721	4.38309
272.923	4.35933
273.115	4.3342
273.303	4.30794
273.495	4.2808
273.698	4.25301
273.918	4.22482
274.163	4.19645
274.439	4.16816
274.755	4.14017
275.116	4.11273
275.531	4.08608
276.005	4.06045
276.547	4.03609
277.163	4.01323
277.861	3.99211
277.861	3.99211
279.284	3.97284
280.588	3.96515
282.017	3.96325
283.816	3.9614
283.816	3.9614
284.203	3.95502
284.673	3.94554
285.481	3.92717
286.882	3.8941
289.131	3.84053
289.131	3.84053
290.654	3.8409
291.843	3.8531
292.804	3.87371
293.644	3.89926
294.468	3.92633
294.468	3.92633
295.891	3.9131
297.015	3.88766
297.952	3.85605
298.816	3.82428
298.816	3.82428
299.779	3.8168
300.724	3.81815
301.646	3.82678
302.541	3.84117
303.405	3.85978
304.234	3.88106
305.024	3.90348
305.771	3.9255
306.471	3.94559
307.12	3.9622
307.714	3.97381
307.714	3.97381
308.247	3.96241
308.657	3.9461
308.969	3.92583
309.207	3.90253
309.397	3.87713
309.563	3.85059
309.731	3.82382
309.925	3.79779
310.169	3.77342
310.49	3.75164
310.911	3.73341
311.457	3.71966
312.154	3.71133
313.026	3.70935
313.026	3.70935
313.844	3.73384
314.587	3.75943
315.272	3.78586
315.919	3.81285
316.546	3.84014
317.173	3.86746
317.817	3.89454
318.498	3.92113
319.233	3.94694
320.043	3.97172
320.945	3.99519
320.945	3.99519
321.209	3.99404
321.482	3.9927
321.76	3.99125
321.76	3.99125
322.181	3.96745
322.503	3.93568
322.742	3.89881
322.912	3.8597
323.028	3.8212
323.106	3.7862
323.16	3.75753
323.205	3.73808
323.205	3.73808
323.36	3.71104
323.517	3.68402
323.676	3.657
323.836	3.63
323.998	3.603
324.161	3.57601
324.327	3.54903
324.495	3.52205
324.665	3.49507
324.837	3.46809
325.012	3.44112
325.189	3.41414
325.369	3.38715
325.551	3.36016
325.736	3.33317
325.924	3.30617
326.115	3.27915
326.309	3.25212
326.507	3.22509
326.707	3.19803
326.911	3.17096
327.118	3.14388
327.329	3.11677
327.544	3.08964
327.762	3.0625
