Uv/Vis Spectrum: Phenol, 2-(1,1-dimethylethyl)-6-methyl-
Formula: C11H16O
CAS: 2219-82-1
Melting point: 51-53
Boiling point: 236
Instrument: SF-26
Origin: INSTITUTE OF ENERGY PROBLEMS OF CHEMICAL PHYSICS, RAS
Wavelength (nm)	Logarithm epsilon
210.73	3.766
211.27	3.766
211.8	3.766
212.34	3.766
212.88	3.766
213.41	3.766
213.95	3.766
214.48	3.766
215.02	3.766
217.17	3.755
218.78	3.76
220.39	3.766
222	3.771
223.61	3.781
225.21	3.787
226.82	3.781
228.43	3.776
230.04	3.766
231.65	3.729
233.26	3.639
234.87	3.523
237.02	2.999
238.09	2.841
239.16	2.508
240.24	2.408
241.31	2.307
242.38	2.249
243.45	2.202
244.53	2.159
245.6	2.133
246.67	2.128
247.75	2.143
248.82	2.202
249.89	2.276
253.11	2.418
254.18	2.471
255.26	2.556
256.33	2.614
257.4	2.656
258.48	2.714
259.55	2.762
260.62	2.82
261.7	2.878
262.77	2.925
263.84	2.962
264.91	3.005
267.06	3.084
268.67	3.137
270.28	3.179
271.89	3.216
273.5	3.258
275.11	3.301
276.72	3.338
278.33	3.38
279.94	3.406
281.55	3.417
283.15	3.412
284.76	3.39
286.37	3.375
287.98	3.353
289.59	3.274
291.2	3.116
292.81	2.999
294.42	2.777
296.03	2.371
297.64	2.017
