Uv/Vis Spectrum: Naphthalene, 1-methoxy-
Formula: C11H10O
CAS: 2216-69-5
Melting point: < -10
Boiling point: 269
Instrument: n.i.g.
Origin: INSTITUTE OF ENERGY PROBLEMS OF CHEMICAL PHYSICS, RAS
Wavelength (nm)	Logarithm epsilon
331.163	1.20165
330.95	1.23312
330.82	1.27734
330.819	1.28328
330.483	1.31974
330.38	1.33993
330.314	1.35028
330.181	1.35805
329.772	1.4474
329.666	1.48662
329.598	1.50622
329.467	1.50761
328.736	1.58919
328.732	1.61108
328.191	1.72827
328.147	1.74151
328.088	1.75485
328.032	1.71184
327.329	1.85365
327.325	1.87554
326.631	1.98086
326.527	2.01734
326.461	2.03558
326.362	2.043
325.612	2.13222
325.608	2.1605
324.921	2.26445
324.851	2.30597
324.796	2.30517
324.755	2.30458
324.274	2.34013
324.273	2.34651
323.917	2.3921
323.912	2.42038
323.588	2.47236
323.587	2.47874
323.232	2.52889
323.132	2.5526
323.069	2.56446
322.972	2.57222
322.583	2.65656
322.358	2.68483
321.905	2.78423
321.703	2.81536
321.577	2.87861
321.253	2.90232
321.176	2.98805
321.074	2.91417
321.06	2.99899
321.032	2.92421
320.914	2.94471
320.532	3.00035
320.25	3.02951
320.245	3.05792
319.273	3.16674
319.27	3.18863
318.925	3.23742
318.811	3.23924
318.771	3.24015
318.61	3.28953
318.607	3.30855
318.132	3.24012
317.826	3.24011
317.347	3.22668
315.183	3.18529
314.624	3.25121
314.392	3.28467
314.151	3.2897
313.915	3.29651
313.914	3.2979
312.991	3.34117
312.9	3.35224
312.841	3.35804
312.536	3.36897
309.937	3.45916
309.848	3.46693
309.791	3.47101
309.703	3.4724
309.653	3.42632
309.652	3.43226
309.646	3.47329
309.432	3.42279
309.339	3.41217
309.338	3.41811
309.337	3.42129
308.738	3.40258
308.165	3.39798
308.164	3.40393
308.163	3.4071
307.962	3.41031
307.849	3.41211
307.667	3.42761
306.078	3.49686
305.898	3.51557
305.792	3.52512
305.501	3.53288
305.341	3.53696
305.254	3.5479
303.745	3.56791
303.166	3.5565
299.205	3.57958
299.014	3.58551
298.907	3.58868
298.557	3.59005
298.37	3.59094
297.995	3.60018
295.049	3.66194
294.421	3.67117
294.108	3.67604
293.839	3.68241
291.803	3.7229
291.095	3.72287
290.756	3.72286
290.149	3.70871
289.846	3.70184
289.57	3.69865
289.443	3.69726
288.567	3.67638
282.68	3.65408
282.343	3.65727
282.175	3.65907
281.433	3.6636
277.647	3.67527
277.572	3.67023
274.315	3.56885
274.315	3.56944
274.315	3.57113
274	3.55927
273.842	3.55469
273.462	3.54021
273.282	3.53322
272.968	3.53003
272.811	3.52864
272.641	3.51586
272.568	3.50948
272.173	3.50172
271.989	3.49804
271.685	3.48982
271.549	3.46669
271.546	3.48571
270.16	3.44824
270.08	3.44324
270.051	3.44094
269.746	3.42998
269.593	3.4245
269.375	3.41949
266.576	3.33906
266.411	3.3303
266.258	3.32491
266.173	3.31852
263.523	3.2445
263.294	3.24279
263.189	3.2422
263.113	3.23412
263.086	3.23034
262.796	3.22225
261.785	3.19241
261.71	3.18146
260.315	3.13806
260.315	3.13865
260.315	3.14034
259.956	3.12541
257.383	3.0362
257.325	3.03116
257.185	3.02433
256.871	3.01573
256.572	3.0056
256.356	3.00241
253.935	2.91789
253.873	2.91285
253.723	2.90602
253.589	2.90283
253.53	2.90144
253.396	2.89505
250.955	2.81875
250.885	2.81236
250.861	2.80917
250.527	2.80107
249.192	2.76164
249.123	2.76163
249.099	2.76163
248.913	2.75706
248.82	2.75477
248.677	2.74838
248.616	2.74518
248.356	2.74017
248.042	2.73785
247.666	2.73783
246.695	2.7665
246.638	2.77427
246.602	2.77835
246.362	2.79705
246.234	2.8066
246.161	2.80798
245.37	2.90095
245.196	2.91303
244.786	2.95974
244.73	2.97082
244.694	2.97661
244.639	2.97799
244.511	3.00943
244.397	3.02037
244.329	3.02584
244.256	3.04147
243.854	3.12066
243.854	3.12661
243.853	3.12978
243.727	3.13298
243.656	3.13479
243.654	3.15989
243.649	3.20547
243.399	3.21184
243.274	3.21502
243.27	3.25255
242.998	3.30713
242.944	3.31168
242.708	3.36594
242.595	3.38795
241.885	3.48172
241.812	3.50225
241.417	3.59752
241.291	3.62579
240.763	3.66634
240.762	3.68185
240.761	3.6896
240.707	3.70375
240.672	3.71103
240.428	3.71101
240.3	3.77713
240.245	3.80371
240.209	3.81725
239.941	3.83152
239.755	3.86191
239.701	3.86968
239.667	3.87377
239.611	3.90673
239.383	3.95675
239.273	3.97545
239.206	4.00827
239.084	4.01147
239.016	4.01327
238.906	4.03515
238.301	4.14319
238.13	4.15244
238.044	4.15731
237.867	4.17463
237.407	4.23981
237.17	4.24118
237.052	4.24207
236.593	4.26714
236.357	4.27987
236.238	4.28308
236.172	4.28488
236.009	4.29432
233.674	4.35767
233.394	4.36404
233.247	4.36722
233.018	4.3672
232.904	4.36719
232.626	4.37356
232.48	4.37674
232.43	4.37674
