Uv/Vis Spectrum: 2,2'-Diiodobiphenyl
Formula: C12H8I2
CAS: 2236-52-4
Instrument: Unicam SP 500
Origin: INSTITUTE OF ENERGY PROBLEMS OF CHEMICAL PHYSICS, RAS
Wavelength (nm)	Logarithm epsilon
203.85	4.509
204.05	4.509
204.25	4.509
204.46	4.509
204.66	4.509
204.86	4.505
205.06	4.505
205.27	4.505
205.47	4.505
205.67	4.505
205.87	4.502
206.08	4.502
206.28	4.502
206.48	4.502
207.5	4.488
208.71	4.47
209.32	4.456
209.93	4.439
210.53	4.439
211.14	4.417
212.36	4.386
212.97	4.372
213.57	4.365
214.18	4.354
214.79	4.347
216	4.333
216.61	4.333
217.22	4.333
217.83	4.315
218.43	4.315
219.04	4.315
219.65	4.312
220.26	4.308
220.87	4.308
222.08	4.305
222.69	4.301
223.9	4.305
224.51	4.308
225.12	4.312
225.73	4.315
227.55	4.315
228.77	4.315
229.37	4.315
229.98	4.312
230.59	4.305
231.2	4.301
231.8	4.298
233.02	4.284
234.24	4.259
234.84	4.245
235.45	4.227
236.06	4.199
236.67	4.168
237.27	4.129
237.88	4.122
238.49	4.108
239.1	4.076
239.71	4.051
240.31	4.027
240.92	3.946
241.53	3.914
242.14	3.883
242.74	3.84
243.35	3.826
243.96	3.749
244.57	3.707
245.17	3.703
245.78	3.671
247	3.615
247.61	3.591
248.21	3.576
248.82	3.555
250.04	3.517
251.25	3.488
251.86	3.474
252.47	3.46
253.68	3.432
254.29	3.425
255.51	3.397
256.11	3.386
256.72	3.376
257.33	3.365
259.15	3.33
260.98	3.302
261.58	3.295
262.19	3.288
262.8	3.277
263.41	3.27
264.01	3.256
265.23	3.232
265.84	3.225
267.05	3.196
267.66	3.182
268.27	3.175
268.88	3.165
269.48	3.147
270.7	3.112
271.92	3.087
272.52	3.073
273.13	3.056
273.74	3.038
274.95	3.003
275.56	2.968
276.17	2.961
276.78	2.929
277.38	2.911
277.99	2.873
278.6	2.845
279.21	2.806
279.82	2.767
280.42	2.732
281.03	2.7
281.64	2.672
282.25	2.633
282.85	2.605
283.46	2.581
284.07	2.556
285.29	2.503
285.89	2.475
286.5	2.457
287.11	2.433
287.72	2.412
288.32	2.391
288.93	2.387
290.15	2.355
290.76	2.345
291.36	2.32
291.97	2.296
292.58	2.264
293.19	2.222
293.79	2.183
