Uv/Vis Spectrum: 6-methoxy-2-pyridone
Formula: C6H7NO2
CAS: 22385-36-0
Melting point: 104-105
Instrument: Cary 118
Origin: INSTITUTE OF ENERGY PROBLEMS OF CHEMICAL PHYSICS, RAS
Wavelength (nm)	Logarithm epsilon
252.94	2.853
253.44	2.877
253.94	2.902
254.44	2.926
254.94	2.951
255.44	2.975
255.94	3
256.44	3.025
256.94	3.05
257.44	3.075
257.94	3.1
258.44	3.125
258.94	3.15
259.44	3.174
259.94	3.199
260.44	3.223
260.94	3.248
261.44	3.272
261.94	3.296
262.44	3.319
262.94	3.342
263.44	3.365
263.94	3.388
264.44	3.41
264.94	3.432
265.44	3.453
265.94	3.474
266.44	3.494
266.94	3.514
267.44	3.533
267.94	3.552
268.44	3.57
268.94	3.588
269.44	3.605
269.94	3.621
270.44	3.636
270.94	3.651
271.44	3.665
271.94	3.678
272.44	3.691
272.94	3.702
273.44	3.713
273.94	3.723
274.44	3.732
274.94	3.741
275.44	3.748
275.94	3.754
276.44	3.76
276.94	3.765
277.44	3.768
277.94	3.771
278.44	3.773
278.94	3.773
279.44	3.773
279.94	3.772
280.44	3.769
280.94	3.766
281.44	3.762
281.94	3.756
281.96	3.757
282.46	3.75
282.96	3.742
283.46	3.732
283.96	3.722
284.46	3.711
284.96	3.699
285.46	3.687
285.96	3.674
286.46	3.66
286.96	3.645
287.46	3.629
287.96	3.612
288.46	3.593
288.96	3.572
289.46	3.549
289.96	3.524
290.46	3.498
290.96	3.47
291.46	3.442
291.96	3.414
292.46	3.386
292.96	3.361
293.464	3.338
293.964	3.316
294.464	3.296
294.964	3.279
295.464	3.263
295.964	3.25
296.464	3.239
296.964	3.23
297.464	3.224
297.964	3.219
298.464	3.216
298.964	3.215
299.464	3.215
299.964	3.217
300.464	3.219
300.964	3.222
301.464	3.226
301.964	3.23
302.464	3.235
302.964	3.24
303.464	3.244
303.964	3.249
304.464	3.253
304.964	3.257
305.464	3.26
305.964	3.263
306.464	3.266
306.964	3.268
307.464	3.27
307.964	3.271
308.464	3.272
308.964	3.273
309.464	3.273
309.964	3.273
310.464	3.273
310.964	3.273
311.464	3.272
311.964	3.272
312.464	3.271
312.964	3.27
313.464	3.269
313.964	3.268
314.464	3.266
314.964	3.263
315.464	3.26
315.964	3.256
316.464	3.252
316.964	3.247
317.464	3.241
317.964	3.234
318.464	3.226
318.964	3.218
319.464	3.209
319.964	3.199
320.464	3.189
320.964	3.178
321.464	3.168
321.964	3.158
322.464	3.147
322.964	3.138
323.464	3.128
323.964	3.119
324.464	3.109
324.964	3.099
325.464	3.088
325.964	3.076
326.464	3.062
326.964	3.046
327.464	3.028
327.964	3.009
328.464	2.993
328.964	2.983
