Uv/Vis Spectrum: 2,4-Dimethylstyrene
Formula: C10H12
CAS: 2234-20-0
Boiling point: 79-80/ 12 mm
Instrument: SF-4
Origin: INSTITUTE OF ENERGY PROBLEMS OF CHEMICAL PHYSICS, RAS
Wavelength (nm)	Logarithm epsilon
201.71	4.289
202.39	4.308
203.07	4.323
203.75	4.337
204.43	4.349
205.12	4.362
205.8	4.371
206.48	4.38
207.16	4.387
207.85	4.392
208.53	4.396
209.21	4.4
209.89	4.403
210.58	4.404
211.26	4.4
211.94	4.383
212.62	4.362
213.3	4.341
213.99	4.327
214.67	4.319
215.35	4.311
216.03	4.302
216.72	4.284
217.4	4.219
218.08	4.178
218.76	4.138
219.45	4.119
220.13	4.102
220.81	4.075
221.49	4.065
222.17	4.049
222.86	4.035
223.54	4.02
224.22	3.995
224.9	3.964
225.59	3.91
226.27	3.858
226.95	3.774
227.63	3.736
228.32	3.706
229	3.698
229.68	3.698
230.36	3.702
231.04	3.706
231.73	3.721
232.41	3.75
233.09	3.774
233.77	3.794
234.46	3.818
235.14	3.839
235.82	3.864
236.5	3.88
237.19	3.907
237.87	3.926
238.55	3.945
239.23	3.96
239.91	3.977
240.6	3.995
241.28	4.009
241.96	4.024
242.64	4.035
243.33	4.049
244.01	4.062
244.69	4.077
245.37	4.086
246.06	4.096
246.74	4.104
247.42	4.115
248.1	4.124
248.78	4.129
249.47	4.134
250.15	4.142
250.83	4.147
251.51	4.147
252.2	4.145
252.88	4.144
253.56	4.141
254.24	4.14
254.93	4.137
255.61	4.134
256.29	4.129
256.97	4.125
257.65	4.121
258.34	4.113
259.02	4.104
259.7	4.094
260.38	4.082
261.07	4.07
261.75	4.056
262.43	4.03
263.11	4.005
263.8	3.985
264.48	3.958
265.16	3.938
265.84	3.922
266.52	3.9
267.21	3.885
267.89	3.861
268.57	3.83
269.25	3.79
269.94	3.757
270.62	3.725
271.3	3.678
271.98	3.626
272.67	3.571
273.35	3.532
274.03	3.464
274.71	3.382
