Uv/Vis Spectrum: Naphthalene, octachloro-
Formula: C10Cl8
CAS: 2234-13-1
Melting point: 197.5
Boiling point: 441/ 7 mm; 248/ 0.5 mm
Instrument: Cary automatic Recording spectrometer
Origin: INSTITUTE OF ENERGY PROBLEMS OF CHEMICAL PHYSICS, RAS
Wavelength (nm)	Logarithm epsilon
210.23	3.988
210.45	3.984
210.68	3.979
210.91	3.979
211.13	3.975
211.36	3.97
211.59	3.97
211.81	3.966
212.04	3.962
212.27	3.962
212.49	3.957
212.72	3.953
212.95	3.953
213.17	3.948
213.4	3.944
213.63	3.944
213.85	3.926
214.76	3.917
215.67	3.904
216.57	3.895
217.48	3.886
218.39	3.895
219.29	3.904
220.2	3.921
221.11	3.935
222.02	3.948
222.92	3.966
223.83	3.984
224.74	3.997
225.64	4.011
226.55	4.028
227.46	4.051
228.36	4.064
229.27	4.082
230.18	4.1
231.08	4.118
231.99	4.136
232.9	4.153
233.8	4.171
234.71	4.193
235.62	4.216
236.52	4.234
237.43	4.256
238.34	4.278
239.24	4.301
240.15	4.327
241.06	4.354
241.96	4.381
242.87	4.39
243.78	4.403
244.69	4.408
245.59	4.416
246.5	4.425
247.41	4.43
248.31	4.43
249.22	4.434
250.13	4.439
251.03	4.443
251.94	4.448
252.85	4.448
253.75	4.452
254.66	4.452
255.57	4.461
256.47	4.47
257.38	4.474
258.29	4.488
259.19	4.497
260.1	4.51
261.01	4.519
261.91	4.537
262.82	4.546
263.73	4.559
264.63	4.577
265.54	4.59
266.45	4.604
267.36	4.617
268.26	4.631
269.17	4.639
270.08	4.644
270.98	4.648
271.89	4.644
272.8	4.635
273.7	4.617
274.61	4.573
275.52	4.492
276.42	4.376
277.33	4.283
278.24	4.202
279.14	4.131
280.05	4.064
280.96	3.993
281.86	3.895
282.77	3.788
283.68	3.703
284.58	3.636
285.49	3.574
286.4	3.542
287.3	3.529
288.21	3.525
289.12	3.525
290.03	3.529
290.93	3.529
291.84	3.533
292.75	3.547
293.65	3.551
294.56	3.56
295.47	3.574
296.37	3.591
297.28	3.605
298.19	3.618
299.09	3.636
300	3.654
300.91	3.663
301.81	3.681
302.72	3.698
303.63	3.721
304.53	3.739
305.44	3.756
306.35	3.774
307.25	3.779
308.16	3.788
309.07	3.801
309.97	3.805
310.88	3.81
311.79	3.819
312.7	3.828
313.6	3.837
314.51	3.846
315.42	3.859
316.32	3.872
317.23	3.881
318.14	3.895
319.04	3.913
319.95	3.93
320.86	3.944
321.76	3.957
322.67	3.975
323.58	3.984
324.48	3.993
325.39	3.997
326.3	3.993
327.2	3.993
328.11	3.979
329.02	3.975
329.92	3.962
330.83	3.948
331.74	3.935
332.64	3.921
333.55	3.908
334.46	3.886
335.37	3.868
336.27	3.85
337.18	3.832
338.09	3.814
338.99	3.801
339.9	3.779
340.81	3.756
341.71	3.734
342.62	3.712
343.53	3.681
344.43	3.654
345.34	3.632
346.25	3.605
347.15	3.569
348.06	3.542
348.97	3.511
349.87	3.484
350.78	3.44
351.69	3.404
352.59	3.373
353.5	3.337
354.41	3.306
355.31	3.27
356.22	3.235
357.13	3.203
358.04	3.168
358.94	3.137
359.85	3.101
360.76	3.065
361.66	3.034
362.57	2.994
363.48	2.985
