Uv/Vis Spectrum: Benzonitrile, 3-amino-
Formula: C7H6N2
CAS: 2237-30-1
Melting point: 53.5
Instrument: Unicam SP 800 B
Origin: INSTITUTE OF ENERGY PROBLEMS OF CHEMICAL PHYSICS, RAS
Wavelength (nm)	Logarithm epsilon
203.05	3.733
203.9	3.71
205.42	3.71
206.27	3.737
206.94	3.764
207.45	3.795
207.96	3.822
208.81	3.849
209.48	3.876
210.16	3.904
210.84	3.931
211.69	3.958
212.7	3.982
213.72	4.006
214.73	4.026
215.75	4.047
217.1	4.06
218.46	4.074
219.98	4.074
221.51	4.074
222.86	4.06
224.05	4.043
225.06	4.019
225.91	3.992
226.25	3.961
226.93	3.934
227.44	3.904
227.77	3.873
228.28	3.842
228.45	3.812
228.79	3.781
228.96	3.75
229.13	3.72
229.3	3.689
229.47	3.658
229.64	3.628
229.98	3.597
230.31	3.567
230.82	3.536
231.16	3.505
231.84	3.478
232.35	3.451
233.19	3.423
234.21	3.403
235.56	3.389
237.09	3.386
238.44	3.396
239.97	3.4
241.32	3.41
242.85	3.417
244.2	3.43
245.73	3.434
247.08	3.444
248.61	3.447
250.13	3.454
251.65	3.454
253.18	3.451
254.7	3.441
255.89	3.423
256.9	3.4
257.75	3.372
258.26	3.345
258.77	3.318
259.44	3.291
259.78	3.26
260.29	3.233
260.8	3.206
261.31	3.178
261.81	3.148
262.32	3.117
262.66	3.086
263	3.056
263.51	3.025
263.85	2.994
264.36	2.967
264.69	2.937
265.03	2.906
265.54	2.879
265.88	2.848
266.05	2.817
266.56	2.79
266.73	2.76
267.23	2.732
267.57	2.702
267.91	2.671
268.25	2.64
268.59	2.61
268.76	2.579
268.93	2.548
269.44	2.518
269.61	2.487
269.94	2.456
270.28	2.426
270.45	2.395
270.62	2.365
270.96	2.334
271.13	2.303
271.47	2.273
271.64	2.242
271.81	2.211
272.15	2.181
272.48	2.15
272.65	2.119
273.16	2.092
273.84	2.065
274.69	2.038
276.21	2.034
277.23	2.055
278.07	2.082
278.58	2.109
279.26	2.136
280.11	2.164
280.78	2.191
281.29	2.218
282.14	2.245
282.81	2.273
283.49	2.3
284.34	2.327
285.19	2.354
286.03	2.382
286.71	2.409
287.56	2.436
288.23	2.463
289.25	2.487
289.93	2.514
290.77	2.542
291.62	2.569
292.47	2.596
293.48	2.617
294.5	2.64
295.52	2.664
296.36	2.688
297.38	2.712
298.4	2.736
299.41	2.756
300.43	2.777
301.44	2.797
302.46	2.821
303.65	2.838
304.66	2.858
305.85	2.875
307.2	2.892
308.39	2.913
309.57	2.933
310.76	2.95
312.11	2.967
313.3	2.984
314.65	2.998
316.01	3.008
317.36	3.022
318.72	3.032
320.24	3.039
321.77	3.039
323.29	3.032
324.82	3.025
326.34	3.015
327.69	3.001
329.05	2.984
330.4	2.967
331.76	2.954
332.94	2.937
334.13	2.916
335.32	2.896
336.33	2.875
337.35	2.851
338.36	2.828
339.21	2.8
340.06	2.777
340.9	2.749
341.75	2.725
342.6	2.698
343.11	2.671
343.95	2.647
344.46	2.62
344.97	2.593
345.65	2.565
346.15	2.538
346.66	2.511
347.17	2.484
347.68	2.453
348.19	2.426
348.69	2.395
348.86	2.365
349.37	2.334
349.71	2.303
350.05	2.273
350.56	2.245
350.9	2.215
351.23	2.184
351.4	2.153
351.74	2.123
351.91	2.092
352.25	2.062
354.28	1.667
355.98	1.421
356.82	1.261
357.67	1.091
358.52	0.931
359.36	0.791
360.21	0.652
361.06	0.512
