Uv/Vis Spectrum: Dibenz[a,j]anthracene
Formula: C22H14
CAS: 224-41-9
Melting point: 196
Instrument: Zeiss PMQ II
Origin: INSTITUTE OF ENERGY PROBLEMS OF CHEMICAL PHYSICS, RAS
Wavelength (nm)	Logarithm epsilon
182.68	4.536
183.55	4.507
184.57	4.483
185.69	4.462
186.96	4.449
188.33	4.44
189.57	4.425
190.42	4.398
191.77	4.387
193.21	4.393
194.67	4.4
196.07	4.413
197.33	4.432
198.51	4.455
199.71	4.479
200.75	4.507
202.07	4.528
203.67	4.522
205.12	4.502
206.58	4.485
208.07	4.502
209.67	4.492
211.39	4.487
212.85	4.504
214.04	4.532
214.68	4.548
215.2	4.552
215.46	4.552
215.74	4.551
215.93	4.549
216.34	4.543
216.74	4.534
217.15	4.524
217.56	4.511
217.95	4.507
218.38	4.509
218.79	4.513
219.21	4.519
219.59	4.523
220.03	4.524
220.55	4.525
220.97	4.53
221.3	4.536
221.73	4.545
222.16	4.558
222.58	4.573
223.01	4.592
223.44	4.618
223.87	4.645
224.34	4.668
224.74	4.684
225.18	4.697
225.62	4.692
226.08	4.669
226.51	4.645
226.95	4.62
227.4	4.562
227.82	4.519
228.29	4.49
228.75	4.453
229.2	4.406
229.65	4.355
230.11	4.302
230.57	4.267
231.03	4.227
231.49	4.195
231.96	4.171
232.38	4.158
232.8	4.152
233.36	4.152
233.87	4.156
234.36	4.16
234.91	4.166
235.33	4.17
235.74	4.176
236.27	4.183
236.7	4.191
237.19	4.199
237.68	4.208
238.17	4.218
238.66	4.235
239.15	4.248
239.65	4.265
240.14	4.282
240.79	4.299
241.46	4.318
242.16	4.336
242.66	4.351
243.17	4.368
243.69	4.381
244.2	4.391
244.72	4.398
245.25	4.401
245.76	4.406
246.28	4.413
246.81	4.417
247.33	4.421
247.86	4.428
248.45	4.438
248.93	4.447
249.47	4.457
250.02	4.466
250.51	4.471
251.09	4.472
251.64	4.468
252.15	4.464
252.74	4.46
253.29	4.455
253.85	4.449
254.38	4.445
254.97	4.445
255.6	4.448
256.1	4.457
256.66	4.483
257.24	4.519
257.68	4.549
258.39	4.592
258.96	4.601
259.54	4.571
260.13	4.519
260.71	4.449
261.3	4.385
261.9	4.308
262.49	4.265
263.09	4.246
263.69	4.235
264.27	4.232
264.89	4.227
265.5	4.223
266.11	4.218
266.73	4.212
267.34	4.206
267.97	4.202
268.59	4.201
269.23	4.202
269.84	4.206
270.47	4.214
271.1	4.225
271.74	4.238
272.38	4.259
273.02	4.282
273.67	4.321
274.32	4.396
274.97	4.445
275.63	4.479
276.28	4.496
276.95	4.492
277.61	4.477
278.28	4.46
278.95	4.449
279.65	4.448
280.27	4.448
280.98	4.451
281.66	4.458
282.36	4.477
283.12	4.517
283.74	4.558
284.44	4.622
285.14	4.739
285.84	4.818
286.55	4.87
287.26	4.88
287.98	4.863
288.7	4.829
289.42	4.786
290.15	4.748
290.83	4.722
291.61	4.705
292.35	4.692
293.09	4.686
293.83	4.684
294.58	4.694
295.33	4.718
296.09	4.761
296.85	4.867
297.61	5.015
298.38	5.098
299.15	5.107
299.93	5.064
300.71	4.974
301.45	4.957
302.28	4.94
303.07	4.919
303.87	4.889
304.67	4.797
305.47	4.671
306.28	4.49
307.1	4.408
307.91	4.372
308.74	4.34
309.58	4.31
310.39	4.28
311.23	4.244
312.07	4.21
312.91	4.169
313.76	4.137
314.61	4.118
315.46	4.106
316.34	4.099
317.2	4.097
318.09	4.101
318.95	4.114
319.8	4.133
320.72	4.156
321.51	4.177
322.68	4.217
323.41	4.225
324.32	4.195
325.22	4.136
326.13	4.081
327.36	4.018
328.7	3.969
329.61	3.953
330.59	3.968
331.52	3.994
332.51	4.027
333.43	4.065
334.4	4.122
335.37	4.156
336.32	4.144
337.32	4.135
338.06	4.154
338.81	4.163
339.8	4.135
340.47	4.07
341.33	3.966
342.54	3.814
343.75	3.685
344.35	3.65
345.13	3.642
346.16	3.627
347.2	3.606
348.24	3.616
348.94	3.69
349.34	3.735
349.82	3.757
350.88	3.77
351.86	3.742
352.92	3.641
354.38	3.471
355.19	3.351
356.29	3.225
357.39	3.061
358.5	2.899
360.33	2.666
361.49	2.527
362.24	2.508
362.8	2.505
363.35	2.522
363.85	2.546
364.43	2.549
365	2.549
365.58	2.551
366.16	2.542
366.74	2.529
367.32	2.493
367.94	2.483
368.49	2.485
369.08	2.521
369.67	2.553
370.26	2.557
370.85	2.576
371.45	2.617
372.05	2.647
372.65	2.677
373.25	2.683
373.85	2.683
374.44	2.676
375.04	2.649
375.67	2.574
376.56	2.463
377.46	2.366
378.13	2.329
378.72	2.312
379.38	2.297
380.03	2.289
380.64	2.302
381.29	2.322
381.9	2.359
382.82	2.457
383.46	2.485
384.11	2.493
384.67	2.495
385.27	2.483
386.18	2.381
386.94	2.267
387.63	2.194
388.29	2.179
388.94	2.171
389.81	2.143
390.97	2.084
391.57	2.086
392.24	2.107
393.39	2.441
393.89	2.517
394.65	2.542
395.2	2.545
395.86	2.527
396.92	2.361
397.97	2.1
398.78	1.846
399.69	1.481
