Uv/Vis Spectrum: Naphthalene, 1,6,7-trimethyl-
Formula: C13H14
CAS: 2245-38-7
Instrument: unknown
Origin: INSTITUTE OF ENERGY PROBLEMS OF CHEMICAL PHYSICS, RAS
Wavelength (nm)	Logarithm epsilon
302.95	2.996
303.12	2.983
303.31	2.973
303.53	2.958
303.75	2.944
303.92	2.933
304.13	2.919
304.34	2.903
304.53	2.89
304.76	2.877
304.97	2.871
305.18	2.866
305.39	2.862
305.6	2.862
305.82	2.863
306.02	2.866
306.24	2.87
306.45	2.875
306.66	2.878
306.86	2.882
307.08	2.885
307.29	2.886
307.49	2.887
307.71	2.887
307.92	2.884
308.13	2.88
308.34	2.873
308.55	2.864
308.76	2.857
308.97	2.848
309.18	2.838
309.4	2.827
309.61	2.817
309.82	2.806
310.03	2.797
310.24	2.788
310.45	2.775
310.66	2.764
310.87	2.753
311.08	2.746
311.29	2.737
311.5	2.733
311.71	2.732
311.92	2.73
312.13	2.727
312.34	2.726
312.55	2.725
312.77	2.724
312.98	2.721
313.19	2.72
313.4	2.715
313.61	2.705
313.82	2.694
314.03	2.679
314.24	2.657
314.45	2.635
314.66	2.608
314.87	2.584
315.08	2.557
315.29	2.539
315.5	2.529
315.71	2.529
315.93	2.535
316.14	2.544
316.35	2.556
316.56	2.573
316.77	2.589
316.98	2.609
317.19	2.629
317.4	2.643
317.61	2.656
317.81	2.667
318.02	2.678
318.24	2.688
318.45	2.696
318.66	2.702
318.77	2.704
318.87	2.701
318.99	2.694
319.09	2.685
319.2	2.675
319.31	2.666
319.45	2.652
319.54	2.642
319.72	2.625
319.91	2.605
320.14	2.578
320.35	2.553
320.56	2.528
320.77	2.508
320.98	2.488
321.19	2.472
321.4	2.464
321.61	2.462
321.82	2.465
322.03	2.469
322.25	2.475
322.46	2.48
322.67	2.484
322.88	2.488
323.09	2.491
323.3	2.493
323.51	2.493
323.72	2.49
323.93	2.481
324.06	2.471
324.14	2.46
324.23	2.442
324.3	2.423
324.38	2.4
324.43	2.379
324.5	2.353
324.56	2.323
324.62	2.295
324.77	2.259
324.98	2.228
