Uv/Vis Spectrum: Silanamine, 1,1,1-trimethyl-N-(pentafluorophenyl)-
Formula: C9H10F5NSi
CAS: 22529-97-1
Melting point: 128-129
Instrument: SF 16
Origin: INSTITUTE OF ENERGY PROBLEMS OF CHEMICAL PHYSICS, RAS
Wavelength (nm)	Logarithm epsilon
209.63	3.622
210.17	3.632
210.7	3.638
211.24	3.643
211.77	3.648
212.31	3.653
212.84	3.673
214.45	3.75
216.06	3.817
217.66	3.894
219.27	3.961
220.87	4.007
222.48	4.084
224.08	4.136
225.69	4.182
227.29	4.213
228.9	4.218
230.5	4.223
232.11	4.213
233.72	4.146
235.32	3.94
236.93	3.735
238.53	3.53
240.14	3.35
241.74	3.242
243.35	3.165
244.95	3.134
246.56	3.119
248.17	3.119
249.77	3.119
251.38	3.129
252.98	3.134
254.59	3.134
256.19	3.14
257.8	3.15
259.4	3.155
261.01	3.155
262.61	3.15
264.22	3.134
265.83	3.129
267.43	3.124
269.04	3.124
270.64	3.124
272.25	3.114
273.85	3.109
275.46	3.104
277.06	3.088
278.67	3.083
280.28	3.063
281.88	3.037
283.49	3.011
285.09	2.95
286.7	2.893
288.3	2.832
289.91	2.749
291.51	2.672
293.12	2.59
294.72	2.498
296.33	2.411
297.94	2.328
299.54	2.246
