Uv/Vis Spectrum: Benzenamine, 4-methyl-N-(phenylmethylene)-
Formula: C14H13N
CAS: 2272-45-9
Melting point: 35
Instrument: Unicam SP 500
Origin: INSTITUTE OF ENERGY PROBLEMS OF CHEMICAL PHYSICS, RAS
Wavelength (nm)	Logarithm epsilon
206.72	4.412
207.73	4.388
208.57	4.365
209.25	4.337
209.92	4.31
210.59	4.283
211.26	4.256
211.94	4.229
212.61	4.201
213.28	4.174
214.12	4.15
215.13	4.127
216.31	4.106
217.48	4.089
218.83	4.076
220.11	4.067
221.69	4.069
223.03	4.079
224.55	4.082
226.06	4.086
227.57	4.082
229.09	4.079
230.6	4.069
232.11	4.059
233.62	4.048
235.14	4.042
236.58	4.036
238.16	4.035
239.68	4.039
241.02	4.045
242.54	4.048
244.05	4.048
245.56	4.048
247.07	4.048
248.59	4.052
249.96	4.058
251.28	4.072
252.45	4.089
253.8	4.103
254.98	4.12
256.32	4.133
257.66	4.148
259.18	4.16
260.52	4.164
262.04	4.167
263.55	4.167
265.06	4.167
266.58	4.164
268	4.159
269.6	4.15
270.86	4.142
272.27	4.131
273.61	4.119
274.98	4.103
276.24	4.089
277.67	4.072
279.02	4.055
280.36	4.042
281.71	4.031
283.05	4.021
284.4	4.008
285.74	3.997
287.26	3.987
288.77	3.977
290.11	3.969
291.8	3.963
293.2	3.956
294.82	3.95
296.34	3.95
297.85	3.95
299.36	3.95
300.87	3.95
302.39	3.953
303.9	3.957
305.41	3.96
306.93	3.963
308.44	3.967
309.95	3.97
311.31	3.978
312.81	3.984
314.29	3.986
315.84	3.987
317.35	3.987
318.86	3.987
320.38	3.987
321.89	3.987
323.4	3.988
324.92	3.987
326.43	3.98
327.87	3.973
329.46	3.963
330.97	3.953
332.31	3.94
333.66	3.923
335	3.906
336.35	3.892
337.53	3.875
338.87	3.858
340.05	3.841
341.22	3.821
342.23	3.8
343.41	3.78
344.59	3.763
345.76	3.743
346.77	3.719
347.78	3.698
348.96	3.678
349.97	3.658
350.98	3.634
351.98	3.613
352.82	3.59
353.83	3.566
354.84	3.545
355.68	3.522
356.69	3.498
357.53	3.471
358.37	3.447
359.21	3.42
360.05	3.396
360.89	3.369
361.54	3.344
362.41	3.318
363.08	3.291
363.74	3.266
364.43	3.24
365.27	3.212
365.94	3.185
366.58	3.162
367.28	3.131
367.86	3.106
368.63	3.08
369.3	3.053
369.97	3.026
370.65	2.998
371.32	2.971
371.82	2.944
372.5	2.917
373	2.89
373.67	2.862
374.34	2.835
374.91	2.812
375.69	2.781
376.19	2.75
376.7	2.723
377.37	2.696
377.88	2.669
378.55	2.642
379.05	2.614
379.72	2.587
380.23	2.56
380.73	2.533
381.38	2.505
382.08	2.475
382.58	2.448
383.26	2.421
383.76	2.393
384.43	2.366
384.94	2.339
385.44	2.312
385.95	2.285
386.45	2.258
387.12	2.23
387.63	2.203
388.13	2.176
388.8	2.149
389.31	2.122
389.81	2.094
390.32	2.064
390.82	2.037
391.33	2.009
391.83	1.982
392.33	1.952
392.84	1.921
393.34	1.894
393.88	1.866
394.35	1.836
394.86	1.809
395.36	1.782
395.86	1.755
396.2	1.724
396.71	1.693
397.21	1.663
397.66	1.633
398.22	1.605
398.72	1.578
399.23	1.551
399.73	1.523
400.24	1.493
400.71	1.463
401.24	1.435
401.75	1.405
402.25	1.374
402.76	1.343
403.29	1.315
403.81	1.286
404.27	1.258
404.79	1.231
405.32	1.204
405.95	1.173
406.47	1.141
406.96	1.116
407.47	1.088
407.98	1.058
408.47	1.031
408.99	1.003
409.65	0.973
410.16	0.942
410.66	0.915
411.16	0.888
