Uv/Vis Spectrum: 1-methoxy-1H-benzotriazole
Formula: C7H7N3O
CAS: 22713-34-4
Melting point: 88-89
Instrument: Specord UV-Vis
Origin: INSTITUTE OF ENERGY PROBLEMS OF CHEMICAL PHYSICS, RAS
Wavelength (nm)	Logarithm epsilon
244.846	2.756
245.846	2.765
246.846	2.775
247.846	2.786
248.846	2.796
249.846	2.805
250.846	2.812
251.846	2.818
252.846	2.822
253.846	2.825
254.846	2.826
255.846	2.825
256.846	2.823
257.846	2.82
258.846	2.816
259.846	2.811
259.993	2.81
260.993	2.804
261.993	2.797
262.993	2.789
263.993	2.781
264.993	2.773
265.993	2.765
266.993	2.758
267.993	2.752
268.993	2.748
269.993	2.744
270.993	2.742
271.993	2.741
272.993	2.74
273.993	2.74
274.993	2.741
275.993	2.741
276.002	2.741
277.002	2.74
278.002	2.741
279.002	2.741
280.002	2.742
280.029	2.742
281.029	2.743
282.029	2.745
283.029	2.747
284.029	2.75
285.029	2.752
286.029	2.756
287.029	2.759
288.029	2.764
288.918	2.769
289.918	2.774
290.918	2.778
291.918	2.781
292.918	2.782
293.918	2.781
294.918	2.778
295.918	2.773
296.918	2.767
297.918	2.758
297.956	2.758
298.956	2.748
299.956	2.736
300.956	2.719
301.956	2.696
302.956	2.672
303.956	2.65
304.475	2.642
