Uv/Vis Spectrum: 2-(Ethenylthio)-1H-benzimidazole
Formula: C9H8N2S
CAS: 22821-00-7
Melting point: 171-172
Instrument: unknown
Origin: INSTITUTE OF ENERGY PROBLEMS OF CHEMICAL PHYSICS, RAS
Wavelength (nm)	Logarithm epsilon
196.209	3.726
197.209	3.751
198.209	3.777
199.209	3.804
200.209	3.833
201.209	3.863
202.209	3.894
203.209	3.926
204.209	3.958
205.209	3.99
206.209	4.024
207.209	4.062
208.209	4.108
209.209	4.167
210.209	4.245
211.209	4.352
211.769	4.415
212.362	4.467
213.362	4.541
214.362	4.586
215.362	4.607
216.362	4.61
217.362	4.601
218.362	4.583
219.362	4.557
220.306	4.523
221.306	4.483
222.306	4.446
223.306	4.409
224.306	4.37
225.306	4.327
226.306	4.282
227.306	4.235
228.306	4.189
229.306	4.144
230.306	4.103
231.306	4.064
232.306	4.025
232.925	3.997
233.925	3.958
234.925	3.908
235.925	3.857
236.925	3.81
237.925	3.773
238.925	3.749
239.925	3.738
240.925	3.739
241.925	3.749
242.707	3.763
243.377	3.77
244.377	3.785
245.377	3.802
246.377	3.817
247.377	3.83
248.377	3.84
249.377	3.853
249.513	3.856
250.313	3.871
251.113	3.875
251.913	3.873
252.713	3.864
253.415	3.847
254.215	3.81
255.015	3.794
255.76	3.792
256.56	3.792
257.36	3.775
258.16	3.746
258.96	3.706
259.76	3.656
260.095	3.635
260.376	3.615
261.176	3.563
261.976	3.527
262.776	3.503
263.576	3.488
264.376	3.483
265.176	3.485
265.976	3.495
266.776	3.513
267.576	3.536
268.376	3.562
269.176	3.585
269.307	3.587
270.107	3.614
270.907	3.64
271.707	3.664
272.507	3.689
273.307	3.714
274.107	3.739
274.907	3.765
275.707	3.791
276.507	3.817
277.307	3.842
278.107	3.867
278.907	3.89
279.707	3.912
280.507	3.932
281.307	3.95
282.107	3.967
282.907	3.982
283.275	3.99
284.075	4.003
284.875	4.012
285.675	4.004
286.475	3.98
287.275	3.949
288.009	3.926
288.384	3.916
288.759	3.913
289.133	3.916
289.462	3.931
289.862	3.96
290.262	4.002
290.662	4.034
291.062	4.046
291.462	4.037
291.862	4.019
291.909	4.014
292.309	3.977
292.709	3.947
293.109	3.92
293.509	3.892
293.909	3.859
294.309	3.822
294.709	3.78
295.109	3.735
295.509	3.688
