Uv/Vis Spectrum: N-(Diphenylmethylene)acetamide
Formula: C15H13NO
CAS: 22800-71-1
Boiling point: 168-170/ 1 mm
Instrument: Shimadzu MPS-50 L
Origin: INSTITUTE OF ENERGY PROBLEMS OF CHEMICAL PHYSICS, RAS
Wavelength (nm)	Logarithm epsilon
224.035	4.024
225.855	4.044
227.676	4.066
229.237	4.088
231.318	4.1
233.035	4.087
234.439	4.077
237.102	4.059
238.341	4.077
239.715	4.11
241.983	4.133
244.584	4.111
247.555	4.076
250.168	4.093
252.908	4.051
254.408	4.016
255.908	3.981
257.408	3.946
258.908	3.911
260.408	3.876
261.908	3.841
263.408	3.805
264.908	3.769
266.408	3.734
267.908	3.698
269.408	3.661
270.908	3.625
272.408	3.588
273.908	3.552
275.408	3.515
276.908	3.477
278.408	3.44
279.908	3.402
281.408	3.364
282.908	3.325
284.408	3.287
285.908	3.248
287.408	3.209
288.908	3.169
290.408	3.129
291.908	3.089
293.408	3.049
294.908	3.009
296.408	2.968
297.908	2.927
299.408	2.885
300.908	2.843
302.408	2.801
303.908	2.759
305.408	2.717
306.908	2.674
308.408	2.631
309.908	2.588
311.408	2.544
312.908	2.501
314.408	2.457
315.908	2.413
317.408	2.368
318.908	2.324
320.408	2.279
321.908	2.234
323.408	2.189
324.908	2.144
326.408	2.099
327.908	2.054
329.408	2.008
330.908	1.963
332.408	1.917
333.908	1.872
335.408	1.826
336.908	1.781
338.408	1.735
339.908	1.69
341.408	1.644
342.908	1.599
344.291	1.557
345.791	1.514
347.291	1.468
348.791	1.427
350.291	1.397
351.791	1.377
353.291	1.365
354.791	1.355
356.291	1.338
356.369	1.336
357.869	1.322
359.369	1.291
360.869	1.249
362.369	1.201
363.869	1.152
365.369	1.103
366.869	1.058
368.369	1.017
369.869	0.979
371.369	0.945
372.869	0.914
374.369	0.884
375.869	0.854
377.369	0.822
378.869	0.785
380.369	0.743
381.869	0.694
383.369	0.635
384.869	0.567
386.369	0.489
387.869	0.401
389.369	0.305
390.869	0.201
