Uv/Vis Spectrum: Phenathridine
Formula: C13H9N
CAS: 229-87-8
Melting point: 107.4
Boiling point: 349
Instrument: n.i.g.
Origin: INSTITUTE OF ENERGY PROBLEMS OF CHEMICAL PHYSICS, RAS
Wavelength (nm)	Logarithm epsilon
227.541	4.17771
228.584	4.22
229.637	4.26229
230.696	4.30459
230.88	4.31551
230.88	4.31551
230.948	4.31049
231.017	4.30548
231.085	4.30047
232.013	4.35398
233.07	4.39417
234.063	4.4347
235.002	4.47421
235.002	4.47421
236.047	4.5058
237.06	4.53483
238.077	4.56132
239.132	4.58529
240.263	4.60679
241.505	4.62584
242.893	4.64246
244.464	4.65668
247.864	4.66569
249.295	4.65768
250.561	4.64505
251.676	4.62834
252.654	4.60809
253.51	4.58484
254.257	4.55914
254.91	4.53153
255.482	4.50255
255.988	4.47274
256.441	4.44265
256.855	4.41281
257.246	4.38377
257.626	4.35607
257.626	4.35607
258.306	4.31972
258.938	4.28627
259.555	4.25538
260.19	4.22672
260.873	4.19996
261.636	4.17476
262.513	4.15079
263.534	4.12772
264.732	4.1052
266.138	4.08291
267.785	4.06051
267.785	4.06051
269.502	4.05064
270.511	4.04374
271.677	4.0339
271.677	4.0339
273.04	4.00902
274.308	3.98179
275.519	3.95285
276.707	3.92287
277.909	3.89248
279.161	3.86235
280.497	3.83312
280.497	3.83312
282.343	3.82738
284.217	3.82361
286.064	3.8253
287.83	3.83596
289.459	3.85908
289.459	3.85908
291.645	3.86617
293.395	3.85838
295.031	3.83992
296.878	3.815
296.878	3.815
298.007	3.80764
299.145	3.80018
300.289	3.79252
300.289	3.79252
301.32	3.7727
302.211	3.74486
302.977	3.71127
303.634	3.67414
304.197	3.63571
304.683	3.59822
305.105	3.56391
305.481	3.535
305.481	3.535
306.313	3.50125
307.162	3.46925
308.05	3.43823
309.001	3.40743
310.038	3.3761
311.186	3.34348
311.186	3.34348
311.771	3.31709
312.354	3.28129
313.437	3.2054
313.437	3.2054
314.655	3.18417
315.937	3.16615
317.25	3.14944
318.562	3.13212
319.842	3.11229
321.055	3.08803
322.171	3.05744
322.171	3.05744
322.332	3.05696
322.492	3.05638
322.652	3.05559
322.652	3.05559
322.675	3.05136
322.704	3.04692
322.742	3.04238
322.742	3.04238
323.437	3.04312
324.141	3.04366
324.851	3.0441
324.851	3.0441
326.026	3.07367
326.96	3.10196
327.728	3.1303
328.407	3.16005
329.073	3.19256
329.8	3.22917
329.8	3.22917
330.083	3.23736
330.376	3.24554
330.674	3.25372
330.674	3.25372
331.202	3.2533
331.521	3.24997
332.001	3.24045
332.001	3.24045
332.112	3.23096
332.42	3.21607
333.051	3.18906
334.13	3.1432
335.784	3.07179
335.784	3.07179
336.195	3.06175
336.606	3.05171
337.017	3.04167
337.017	3.04167
338.598	3.04552
339.594	3.05902
340.643	3.08475
340.643	3.08475
341.538	3.12772
342.438	3.16821
343.472	3.20665
344.765	3.24346
344.765	3.24346
346.236	3.23247
346.857	3.21164
347.082	3.18495
347.366	3.15638
348.165	3.12991
348.165	3.12991
348.474	3.09765
348.787	3.06536
349.103	3.03302
349.42	3.00065
349.737	2.96823
350.053	2.93577
350.367	2.90326
350.677	2.87071
350.983	2.83811
351.284	2.80546
351.578	2.77277
351.864	2.74002
352.141	2.70723
352.408	2.67438
352.663	2.64148
352.906	2.60853
353.136	2.57552
353.136	2.57552
353.346	2.55571
353.678	2.5255
354.115	2.48822
354.638	2.44716
355.232	2.40564
355.878	2.36698
356.56	2.33447
357.259	2.31143
357.959	2.30117
357.959	2.30117
358.673	2.27223
359.541	2.24743
360.699	2.21998
