Uv/Vis Spectrum: 2-amino-9propyl-6H-purin-6-amine
Formula: C8H11N5O
CAS: 22917-85-7
Melting point: > 345
Instrument: Cary 15
Origin: INSTITUTE OF ENERGY PROBLEMS OF CHEMICAL PHYSICS, RAS
Wavelength (nm)	Logarithm epsilon
195.28	4.348
195.446	4.348
196.446	4.323
197.446	4.309
198.446	4.3
199.446	4.294
200.446	4.289
201.446	4.284
202.446	4.279
203.446	4.273
204.446	4.268
205.446	4.263
206.446	4.259
207.446	4.255
208.446	4.253
209.446	4.251
210.446	4.248
211.446	4.243
212.446	4.235
213.446	4.22
214.446	4.198
215.446	4.165
216.446	4.121
217.446	4.063
218.446	3.992
219.446	3.908
220.446	3.813
221.446	3.714
221.473	3.711
222.473	3.608
223.473	3.542
224.473	3.507
225.473	3.494
226.473	3.498
227.473	3.515
228.473	3.54
229.473	3.571
230.473	3.604
231.473	3.637
232.473	3.67
233.473	3.702
234.473	3.732
235.473	3.761
236.473	3.79
237.473	3.82
237.553	3.821
238.553	3.859
239.553	3.89
240.553	3.918
241.553	3.941
242.553	3.962
243.553	3.982
244.553	4
245.553	4.016
246.553	4.033
247.553	4.048
248.553	4.062
249.553	4.074
250.553	4.084
251.553	4.092
252.553	4.097
253.553	4.099
254.553	4.096
255.553	4.09
256.553	4.08
257.553	4.066
258.553	4.051
259.553	4.034
259.602	4.035
260.602	4.02
261.602	4.008
262.602	3.998
263.602	3.991
264.602	3.986
265.602	3.982
266.602	3.979
267.602	3.977
268.602	3.974
269.602	3.972
270.602	3.97
271.602	3.967
272.602	3.964
273.602	3.96
274.602	3.955
275.602	3.949
276.602	3.941
277.602	3.931
278.602	3.92
279.602	3.907
280.602	3.891
281.602	3.873
282.602	3.851
283.602	3.826
284.602	3.797
285.602	3.764
286.602	3.726
287.602	3.682
288.602	3.632
288.612	3.631
289.612	3.572
290.612	3.511
291.612	3.449
292.612	3.384
293.612	3.315
294.612	3.239
295.612	3.151
296.612	3.052
297.612	2.942
298.612	2.83
299.612	2.725
300.612	2.649
