Uv/Vis Spectrum: 4-amino-1-propyl-2(1H)-pyrimidinone
Formula: C7H11N3O
CAS: 22919-46-6
Melting point: 256.5-259.5
Instrument: Cary 15
Origin: INSTITUTE OF ENERGY PROBLEMS OF CHEMICAL PHYSICS, RAS
Wavelength (nm)	Logarithm epsilon
190	4.199
191	4.212
192	4.244
193	4.28
194	4.31
195	4.331
196	4.343
197	4.347
198	4.341
199	4.327
199.746	4.305
200.746	4.279
201.746	4.25
202.746	4.22
203.746	4.191
204.746	4.163
205.746	4.138
206.746	4.117
207.746	4.099
208.746	4.084
209.746	4.072
210.746	4.062
211.746	4.054
212.746	4.045
213.746	4.036
214.746	4.027
215.746	4.016
216.746	4.004
217.746	3.991
218.746	3.978
219.746	3.965
220.746	3.953
221.746	3.943
222.659	3.933
223.659	3.924
224.659	3.917
225.659	3.909
226.659	3.901
227.659	3.892
228.659	3.882
229.659	3.87
230.659	3.856
231.659	3.84
232.659	3.823
233.659	3.804
234.659	3.784
235.659	3.762
236.659	3.74
237.659	3.718
238.659	3.695
239.659	3.674
240.659	3.653
241.659	3.635
242.659	3.619
243.659	3.606
244.659	3.597
245.659	3.591
246.659	3.589
247.659	3.59
248.659	3.595
249.659	3.603
250.659	3.614
251.659	3.626
252.659	3.641
253.608	3.655
254.608	3.673
255.608	3.692
256.608	3.714
257.608	3.736
258.608	3.758
259.608	3.78
260.608	3.801
261.608	3.821
262.608	3.84
263.608	3.858
264.608	3.874
265.608	3.888
266.608	3.901
267.608	3.912
268.608	3.921
269.608	3.928
270.608	3.933
271.608	3.936
272.608	3.936
273.608	3.934
274.608	3.93
275.608	3.923
276.608	3.913
277.608	3.899
278.608	3.882
279.608	3.861
280.453	3.842
281.453	3.803
282.453	3.768
283.453	3.732
284.453	3.694
285.453	3.652
286.453	3.604
287.453	3.549
288.453	3.485
289.453	3.411
290.453	3.328
291.453	3.237
292.453	3.138
293.391	3.043
294.391	2.939
295.391	2.835
296.391	2.707
297.391	2.617
