Uv/Vis Spectrum: dibenzo[c,e][1,2] dithiin
Formula: C12H8S2
CAS: 230-26-2
Melting point: 114-114.5
Instrument: SFD-2
Origin: INSTITUTE OF ENERGY PROBLEMS OF CHEMICAL PHYSICS, RAS
Wavelength (nm)	Logarithm epsilon
214.313	4.456
215.313	4.447
216.313	4.437
217.313	4.425
218.313	4.412
219.313	4.397
220.313	4.381
221.313	4.365
222.313	4.347
223.313	4.329
224.313	4.311
225.313	4.293
226.313	4.275
227.313	4.257
228.313	4.239
229.313	4.222
230.313	4.205
231.313	4.189
232.313	4.173
233.313	4.158
234.313	4.144
235.313	4.131
236.313	4.119
237.313	4.108
238.313	4.097
239.313	4.088
240.313	4.079
241.313	4.072
242.313	4.065
243.313	4.059
244.313	4.054
245.313	4.05
246.313	4.047
247.313	4.044
248.313	4.042
249.313	4.041
250.313	4.041
251.313	4.04
252.313	4.041
253.313	4.042
254.313	4.043
255.313	4.044
256.313	4.046
257.313	4.048
258.313	4.049
259.313	4.051
260.313	4.052
261.313	4.053
262.313	4.054
263.313	4.054
263.647	4.052
264.647	4.056
265.647	4.057
266.647	4.058
267.647	4.058
268.647	4.058
269.647	4.059
270.647	4.061
271.647	4.064
272.647	4.066
273.647	4.069
274.647	4.072
275.647	4.073
276.647	4.073
277.647	4.071
278.647	4.066
279.647	4.059
280.647	4.049
281.647	4.035
282.647	4.019
283.647	3.999
284.647	3.976
285.647	3.95
286.647	3.921
287.647	3.891
288.647	3.859
289.647	3.826
290.647	3.793
291.647	3.761
292.647	3.73
293.647	3.7
294.647	3.673
295.632	3.645
296.632	3.627
297.632	3.609
298.632	3.593
299.632	3.579
300.632	3.566
301.632	3.555
302.632	3.545
303.632	3.537
304.632	3.529
305.632	3.523
306.632	3.517
307.632	3.511
308.632	3.505
309.632	3.499
310.632	3.492
311.632	3.484
312.632	3.474
313.632	3.463
314.632	3.449
315.632	3.433
316.632	3.415
317.632	3.394
318.632	3.37
319.632	3.343
320.632	3.314
321.632	3.283
322.632	3.25
323.632	3.216
324.632	3.182
324.636	3.177
325.636	3.149
326.636	3.116
327.636	3.08
328.636	3.041
329.636	3
330.636	2.96
331.636	2.919
332.636	2.879
333.636	2.84
334.636	2.802
335.636	2.766
336.636	2.733
337.636	2.702
338.636	2.673
339.636	2.647
340.636	2.623
341.636	2.602
342.636	2.583
343.636	2.566
344.636	2.55
345.636	2.537
346.636	2.526
347.636	2.515
348.636	2.506
349.636	2.498
350.636	2.491
351.636	2.484
352.285	2.479
353.285	2.474
354.285	2.469
355.285	2.464
356.285	2.458
357.285	2.451
358.285	2.444
359.285	2.437
360.285	2.429
361.285	2.421
362.285	2.413
363.285	2.404
364.285	2.395
365.285	2.385
366.285	2.376
367.285	2.366
368.285	2.356
369.285	2.347
370.285	2.337
371.285	2.327
372.285	2.317
373.285	2.307
374.285	2.297
375.285	2.287
376.285	2.276
377.285	2.266
378.285	2.254
379.285	2.243
380.285	2.231
381.285	2.217
382.285	2.203
383.285	2.187
384.285	2.169
385.285	2.149
386.285	2.127
386.981	2.11
