Uv/Vis Spectrum: Carbonotrithioic acid, dimethyl ester
Formula: C3H6S3
CAS: 2314-48-9
Boiling point: 106/17 mm
Instrument: unknown
Origin: INSTITUTE OF ENERGY PROBLEMS OF CHEMICAL PHYSICS, RAS
Wavelength (nm)	Logarithm epsilon
217.64	3.292
219.86	3.287
222.07	3.301
223.8	3.325
225.52	3.354
227.25	3.382
229.22	3.406
231.19	3.425
233.41	3.434
235.62	3.43
237.6	3.415
239.57	3.392
241.29	3.368
242.77	3.339
244.25	3.311
245.23	3.273
246.47	3.239
247.45	3.201
248.68	3.163
249.42	3.125
250.41	3.087
251.15	3.049
251.89	3.011
252.63	2.973
253.36	2.935
254.1	2.897
254.84	2.859
255.58	2.821
256.32	2.783
256.81	2.74
257.8	2.702
258.54	2.664
260.02	2.631
261.99	2.654
262.97	2.692
263.71	2.735
264.21	2.778
264.94	2.821
265.44	2.864
265.93	2.906
266.42	2.949
266.92	2.992
267.66	3.035
268.15	3.078
268.64	3.121
269.13	3.163
269.87	3.206
270.37	3.249
270.86	3.292
271.6	3.335
272.09	3.377
272.83	3.415
273.57	3.453
274.31	3.492
275.05	3.534
276.03	3.572
276.77	3.61
277.76	3.649
278.74	3.687
279.73	3.725
280.96	3.763
281.7	3.801
283.18	3.834
284.16	3.872
285.4	3.905
287.12	3.929
288.84	3.958
290.57	3.982
292.29	4.005
294.27	4.024
296.24	4.043
298.45	4.048
300.67	4.053
302.89	4.053
304.86	4.034
307.08	4.02
309.05	4.001
310.53	3.967
312.01	3.934
313.48	3.901
314.72	3.867
315.95	3.834
317.18	3.801
318.16	3.763
319.15	3.725
320.14	3.687
321.12	3.649
322.35	3.61
323.09	3.572
324.08	3.534
325.06	3.496
326.05	3.458
326.79	3.42
327.77	3.382
328.51	3.344
329.25	3.306
329.99	3.268
330.73	3.23
331.47	3.192
332.21	3.154
332.95	3.116
333.69	3.073
334.18	3.03
335.17	2.992
335.9	2.949
336.4	2.906
337.14	2.868
337.88	2.826
338.37	2.783
339.11	2.745
339.6	2.702
340.34	2.659
340.83	2.616
341.33	2.573
341.82	2.531
342.56	2.488
343.05	2.445
343.54	2.402
344.04	2.359
344.77	2.317
345.27	2.274
345.76	2.231
346.25	2.188
346.99	2.145
347.49	2.103
347.98	2.06
348.47	2.017
348.96	1.974
349.7	1.936
350.2	1.893
350.93	1.85
351.43	1.808
351.92	1.765
352.66	1.727
353.15	1.684
353.89	1.641
354.38	1.598
354.88	1.555
355.62	1.517
356.11	1.475
356.85	1.432
357.59	1.389
358.33	1.351
359.07	1.313
360.05	1.275
361.28	1.237
362.51	1.199
364.24	1.17
365.96	1.146
368.18	1.132
370.15	1.146
372.12	1.161
374.1	1.18
376.07	1.199
378.04	1.223
380.01	1.242
381.98	1.261
384.2	1.28
386.17	1.299
388.14	1.318
390.11	1.337
392.08	1.36
394.05	1.375
396.02	1.389
398.24	1.413
400.21	1.432
402.18	1.451
404.15	1.47
406.37	1.484
408.34	1.503
410.31	1.522
412.53	1.532
414.5	1.546
416.72	1.551
418.94	1.551
421.16	1.551
423.37	1.551
425.59	1.546
427.81	1.536
429.78	1.522
431.75	1.508
433.97	1.494
435.69	1.47
437.42	1.446
438.9	1.418
440.62	1.394
442.34	1.365
444.32	1.341
445.79	1.313
447.03	1.28
448.26	1.246
449.98	1.223
451.21	1.189
452.45	1.156
453.93	1.127
455.16	1.094
456.39	1.061
457.62	1.027
458.85	0.989
460.08	0.956
461.32	0.923
462.55	0.885
463.78	0.851
465.01	0.813
466.24	0.78
467.23	0.742
468.46	0.704
469.45	0.666
