Uv/Vis Spectrum: Acetamide, 2-chloro-N,N-diethyl-
Formula: C6H12ClNO
CAS: 2315-36-8
Boiling point: 126.5-128.5/ 21 mm
Instrument: SFD-2
Origin: INSTITUTE OF ENERGY PROBLEMS OF CHEMICAL PHYSICS, RAS
Wavelength (nm)	Logarithm epsilon
222.759	2.388
223.259	2.389
223.759	2.392
224.259	2.394
224.759	2.397
225.259	2.4
225.759	2.403
226.259	2.406
226.759	2.409
227.259	2.412
227.759	2.415
228.259	2.418
228.759	2.421
229.259	2.423
229.759	2.426
230.259	2.428
230.759	2.43
231.259	2.431
231.759	2.433
232.259	2.434
232.759	2.434
233.259	2.435
233.759	2.434
234.259	2.434
234.759	2.433
235.259	2.432
235.759	2.43
236.259	2.428
236.759	2.425
237.259	2.422
237.759	2.419
238.259	2.415
238.759	2.411
239.259	2.406
239.759	2.401
240.259	2.395
240.759	2.389
241.259	2.383
241.759	2.376
242.259	2.369
242.759	2.361
243.259	2.353
243.759	2.344
244.259	2.335
244.759	2.326
245.259	2.316
245.759	2.306
246.259	2.296
246.759	2.285
247.259	2.274
247.759	2.262
248.259	2.251
248.759	2.238
249.259	2.226
249.759	2.213
250.259	2.2
250.759	2.187
251.259	2.173
251.759	2.159
252.259	2.145
252.759	2.13
253.259	2.115
253.759	2.1
254.259	2.085
254.759	2.07
255.259	2.054
255.759	2.038
256.259	2.022
256.759	2.005
257.259	1.989
257.759	1.972
258.259	1.955
258.759	1.938
259.259	1.92
259.759	1.903
260.259	1.885
260.759	1.867
261.259	1.849
261.759	1.831
262.259	1.813
262.759	1.794
263.259	1.776
263.759	1.757
264.259	1.738
264.759	1.72
265.259	1.701
265.759	1.682
266.259	1.662
266.759	1.643
267.259	1.624
267.759	1.605
268.259	1.585
268.759	1.566
269.259	1.546
269.759	1.527
270.259	1.508
270.759	1.488
271.259	1.469
271.759	1.449
272.259	1.43
272.759	1.41
273.259	1.391
273.759	1.372
274.259	1.352
274.759	1.333
275.259	1.314
275.759	1.295
276.259	1.276
276.759	1.257
277.259	1.239
277.759	1.22
278.259	1.202
278.759	1.184
279.259	1.166
279.759	1.148
280.259	1.13
280.759	1.113
281.259	1.096
281.759	1.079
282.259	1.062
282.759	1.046
283.259	1.029
