Uv/Vis Spectrum: 3,4-Dimethyoxycinnamic acid
Formula: C11H12O4
CAS: 2316-26-9
Melting point: 183
Instrument: Unicam SP 700
Origin: INSTITUTE OF ENERGY PROBLEMS OF CHEMICAL PHYSICS, RAS
Wavelength (nm)	Logarithm epsilon
205.85	4.186
208.32	4.198
210.47	4.18
211.09	4.153
212.01	4.122
213.56	4.101
215.4	4.08
216.64	4.056
219.1	4.044
220.95	4.026
222.8	4.008
225.26	3.996
227.03	3.996
229.57	4.017
232.04	4.026
234.81	4.032
236.97	4.014
238.82	3.993
240.67	3.972
242.21	3.951
243.75	3.93
247.14	3.83
247.44	3.83
248.37	3.803
249.6	3.755
250.83	3.703
252.06	3.664
253.3	3.634
254.53	3.595
255.76	3.571
256.99	3.547
258.23	3.538
259.46	3.538
260.69	3.538
261.92	3.553
263.15	3.571
264.39	3.601
265.62	3.622
266.85	3.637
269.32	3.676
270.55	3.7
271.78	3.731
273.01	3.755
274.25	3.779
275.48	3.803
276.71	3.833
277.94	3.848
279.17	3.866
280.41	3.881
284.1	3.917
286.57	3.927
287.8	3.927
289.03	3.923
290.27	3.917
291.5	3.911
292.73	3.905
293.96	3.902
295.19	3.899
296.43	3.896
297.66	3.89
298.89	3.884
301.36	3.878
303.82	3.875
305.05	3.881
306.29	3.887
307.52	3.89
308.75	3.896
309.98	3.899
311.21	3.905
312.45	3.911
313.68	3.917
314.91	3.923
316.14	3.93
317.38	3.933
318.61	3.939
319.84	3.942
321.07	3.942
322.3	3.936
323.54	3.93
324.77	3.92
326	3.914
327.23	3.902
328.47	3.887
329.7	3.869
330.93	3.857
332.16	3.842
333.4	3.83
334.63	3.803
335.86	3.776
337.09	3.749
338.32	3.722
339.56	3.694
342.02	3.634
343.25	3.595
344.49	3.556
345.72	3.501
346.95	3.426
348.18	3.354
349.42	3.293
350.65	3.224
351.88	3.149
353.11	3.107
354.34	3.028
355.58	2.971
356.81	2.896
