Uv/Vis Spectrum: 2-quinoxalinecarboxylic acid ethyl ester 4-oxide
Formula: C11H10N2O3
CAS: 23395-75-7
Instrument: Hitachi EPS-3
Origin: INSTITUTE OF ENERGY PROBLEMS OF CHEMICAL PHYSICS, RAS
Wavelength (nm)	Logarithm epsilon
215.65	4.096
216.65	4.105
217.65	4.116
218.65	4.128
219.65	4.14
220.65	4.152
221.65	4.162
222.65	4.17
223.65	4.175
224.65	4.178
225.65	4.178
226.65	4.175
227.65	4.17
228.65	4.161
229.65	4.15
230.65	4.137
231.65	4.122
232.65	4.106
233.65	4.089
234.65	4.072
235.65	4.056
236.408	4.047
237.408	4.032
238.408	4.021
239.408	4.014
240.408	4.01
241.408	4.008
242.408	4.009
243.408	4.012
244.408	4.016
245.408	4.023
246.408	4.032
247.408	4.042
248.408	4.054
249.408	4.068
250.408	4.084
251.408	4.101
252.408	4.121
253.408	4.142
253.599	4.147
254.599	4.169
255.599	4.189
256.599	4.209
257.599	4.228
258.599	4.247
259.599	4.266
260.599	4.284
261.599	4.302
262.599	4.32
263.599	4.337
264.599	4.353
265.599	4.369
266.599	4.383
267.599	4.397
268.599	4.41
269.599	4.421
270.599	4.431
271.599	4.44
272.599	4.447
273.599	4.452
274.599	4.455
275.599	4.456
276.599	4.455
277.599	4.452
278.599	4.446
279.599	4.436
280.195	4.431
281.195	4.416
282.195	4.395
283.195	4.371
284.195	4.343
285.195	4.313
286.195	4.281
287.195	4.248
288.195	4.214
289.195	4.179
290.195	4.143
291.195	4.106
292.195	4.068
293.195	4.03
294.195	3.992
295.195	3.953
296.195	3.914
297.195	3.876
298.195	3.838
299.195	3.803
300.195	3.771
301.195	3.743
301.278	3.742
302.278	3.708
303.278	3.68
304.278	3.657
305.278	3.64
306.278	3.626
307.278	3.617
308.278	3.61
309.278	3.607
310.278	3.606
311.278	3.608
312.278	3.611
313.278	3.617
314.278	3.625
315.278	3.636
316.278	3.651
317.171	3.667
318.171	3.697
319.171	3.723
320.171	3.745
321.171	3.765
322.171	3.783
323.171	3.798
324.171	3.812
325.171	3.824
326.171	3.834
327.171	3.843
328.171	3.851
329.171	3.858
330.171	3.865
331.171	3.87
332.171	3.875
333.171	3.879
334.171	3.882
335.171	3.884
336.171	3.886
337.171	3.888
338.171	3.889
339.171	3.889
340.171	3.889
341.171	3.889
342.171	3.888
343.171	3.888
344.171	3.888
345.171	3.888
346.171	3.889
346.362	3.889
347.362	3.892
348.362	3.895
349.362	3.898
350.362	3.902
351.362	3.906
352.362	3.91
353.362	3.915
354.362	3.921
355.362	3.927
356.362	3.933
357.362	3.941
358.362	3.948
359.362	3.956
360.362	3.965
361.362	3.973
362.362	3.982
363.362	3.991
364.362	4
365.362	4.01
366.362	4.019
367.362	4.027
368.362	4.036
369.362	4.044
370.362	4.052
371.362	4.06
372.362	4.067
373.362	4.073
374.362	4.079
375.362	4.084
376.362	4.088
377.362	4.092
378.362	4.095
379.362	4.096
380.362	4.097
381.362	4.096
382.362	4.094
383.362	4.091
384.362	4.086
385.362	4.079
386.362	4.069
386.906	4.067
387.906	4.049
388.906	4.031
389.906	4.014
390.906	3.996
391.906	3.977
392.906	3.958
393.906	3.938
394.906	3.918
395.906	3.897
396.906	3.876
397.906	3.854
398.906	3.832
399.906	3.811
400.906	3.79
401.906	3.769
402.906	3.749
403.906	3.73
404.906	3.712
405.906	3.695
406.906	3.679
407.906	3.664
408.906	3.649
409.906	3.636
410.906	3.622
411.823	3.61
412.823	3.594
413.823	3.579
414.823	3.565
415.823	3.553
416.823	3.543
417.823	3.536
418.823	3.531
419.823	3.528
420.823	3.527
421.823	3.527
422.823	3.527
423.823	3.527
424.823	3.526
