Uv/Vis Spectrum: 1H-Benz[g]indole
Formula: C12H9N
CAS: 233-34-1
Melting point: 175-176
Instrument: Specord UV-Vis
Origin: INSTITUTE OF ENERGY PROBLEMS OF CHEMICAL PHYSICS, RAS
Wavelength (nm)	Logarithm epsilon
203.804	4.054
204.804	4.083
205.804	4.113
206.804	4.143
207.804	4.173
208.804	4.203
209.804	4.233
210.804	4.263
211.429	4.281
211.564	4.285
212.564	4.308
213.564	4.323
214.564	4.331
215.564	4.331
216.564	4.324
217.564	4.308
218.585	4.286
219.585	4.276
220.585	4.265
221.585	4.252
222.585	4.239
223.585	4.225
224.585	4.21
225.585	4.194
226.585	4.177
227.585	4.159
228.585	4.14
229.585	4.12
230.479	4.094
231.595	4.061
232.595	4.031
233.595	4.008
234.595	3.992
235.595	3.982
236.595	3.978
237.595	3.981
238.595	3.991
239.595	4.006
240.595	4.029
241.595	4.058
242.613	4.099
243.613	4.143
244.613	4.185
245.613	4.226
246.613	4.265
247.613	4.302
248.613	4.338
249.613	4.372
250.613	4.405
251.613	4.436
252.613	4.465
253.613	4.493
254.613	4.519
255.613	4.544
256.466	4.566
257.205	4.587
258.129	4.612
259.466	4.636
260.466	4.648
261.466	4.64
262.466	4.61
263.466	4.56
264.411	4.504
265.411	4.437
266.411	4.35
267.411	4.252
268.411	4.153
269.411	4.062
270.411	3.983
270.915	3.946
271.599	3.918
272.599	3.902
273.599	3.888
274.599	3.876
275.599	3.865
276.599	3.855
277.599	3.846
278.599	3.837
279.599	3.828
280.599	3.818
281.599	3.808
282.599	3.797
283.599	3.785
284.599	3.77
285.599	3.754
286.599	3.735
287.599	3.714
287.617	3.714
288.617	3.693
289.617	3.673
290.617	3.653
291.617	3.633
292.617	3.613
293.617	3.592
294.617	3.572
295.617	3.552
296.617	3.531
297.617	3.51
298.617	3.489
299.617	3.467
300.617	3.446
301.617	3.424
302.617	3.401
303.617	3.378
304.617	3.355
305.617	3.331
306.617	3.306
307.617	3.281
308.617	3.255
309.617	3.228
310.617	3.201
311.617	3.173
312.574	3.146
313.574	3.111
314.574	3.083
315.574	3.061
316.574	3.045
317.574	3.034
318.574	3.027
319.574	3.025
320.574	3.026
321.574	3.03
322.818	3.039
323.818	3.049
324.818	3.057
325.818	3.061
326.818	3.059
327.818	3.049
328.818	3.031
329.818	3.005
331.013	2.965
332.013	2.932
333.013	2.91
334.013	2.897
335.013	2.891
336.013	2.89
337.013	2.892
337.905	2.893
338.905	2.893
339.905	2.89
340.905	2.884
341.905	2.874
342.905	2.861
343.704	2.833
344.277	2.801
