Uv/Vis Spectrum: C11H6F5NO2
Formula: C11H6F5NO2
CAS: 2340-87-6
Boiling point: 110-111/ 7.5 mm
Instrument: SF-16
Origin: INSTITUTE OF ENERGY PROBLEMS OF CHEMICAL PHYSICS, RAS
Wavelength (nm)	Logarithm epsilon
211.92	3.54
213.54	3.514
215.17	3.493
216.8	3.456
218.42	3.43
220.05	3.382
221.67	3.345
223.3	3.271
224.92	3.235
226.55	3.203
228.17	3.171
229.8	3.155
231.42	3.15
233.05	3.166
234.67	3.177
236.3	3.192
237.93	3.203
239.55	3.203
241.18	3.203
242.8	3.192
244.43	3.182
246.05	3.145
247.68	3.119
249.3	3.087
250.93	3.061
252.55	3.034
254.18	2.992
255.8	2.971
257.43	2.96
259.06	2.934
260.68	2.923
263.93	2.897
265.56	2.871
267.18	2.823
268.81	2.691
270.43	2.597
272.06	2.465
273.68	2.423
275.31	2.396
276.93	2.401
278.56	2.423
280.19	2.454
281.81	2.486
283.44	2.517
285.06	2.554
286.69	2.591
288.31	2.618
289.94	2.644
291.56	2.665
293.19	2.697
296.44	2.749
298.07	2.776
302.94	2.792
304.57	2.797
306.19	2.792
307.82	2.786
309.44	2.776
312.69	2.734
314.32	2.686
315.94	2.644
317.57	2.575
319.2	2.502
320.82	2.417
322.45	2.296
324.07	2.085
325.7	1.985
