Uv/Vis Spectrum: Azulene,6-phenyl-
Formula: C16H12
CAS: 23781-82-0
State: <none>
Melting point: 150
Instrument: n.i.g.
Origin: INSTITUTE OF ENERGY PROBLEMS OF CHEMICAL PHYSICS, RAS
Wavelength (nm)	Logarithm epsilon
211.18	4.429
213.33	4.419
215.88	4.407
218.43	4.396
220.75	4.386
222.61	4.377
223.77	4.373
224.81	4.369
225.51	4.366
226.55	4.363
227.48	4.361
228.64	4.358
229.68	4.357
230.61	4.356
231.31	4.357
232.58	4.364
233.28	4.382
234.23	4.388
235.13	4.388
236.32	4.381
238.42	4.354
240.24	4.321
242.61	4.259
244.7	4.204
246.8	4.156
248.89	4.122
250.97	4.098
253.08	4.082
254.99	4.067
257.28	4.061
259.37	4.068
261.47	4.088
263.56	4.116
265.66	4.15
268.06	4.217
269.85	4.279
272.35	4.366
274.04	4.429
276.14	4.51
278.23	4.578
280.33	4.646
282.42	4.714
284.52	4.762
286.61	4.803
287.53	4.818
288.35	4.83
289.39	4.839
290.8	4.837
291.83	4.83
292.9	4.816
294.99	4.782
296.58	4.748
299.19	4.592
301.28	4.388
303.38	4.265
305.47	4.109
307.57	4
309.66	3.796
311.76	3.707
313.85	3.66
315.6	3.637
318.04	3.628
320.36	3.63
322.24	3.639
324.33	3.66
326.43	3.701
328.52	3.735
330.62	3.755
332.71	3.769
334.16	3.77
335.78	3.764
336.9	3.762
338.1	3.764
339	3.769
341.09	3.796
343.19	3.844
343.56	3.854
344.14	3.865
345.29	3.871
346.11	3.867
346.57	3.856
347.38	3.81
349.48	3.714
351.57	3.66
353.67	3.626
354.46	3.618
355.76	3.612
357.01	3.621
357.86	3.633
359.45	3.672
360.72	3.723
361.07	3.745
361.42	3.757
362.05	3.762
362.35	3.753
362.69	3.72
363.04	3.686
364.14	3.571
366.24	3.367
368.34	3.19
370.43	3.082
372.53	2.966
374.62	2.769
376.72	2.571
378.81	2.517
380.9	2.481
383	2.401
385.1	2.265
387.19	2.177
389.29	2.082
391.39	2.014
393.48	1.952
395.11	1.932
396.98	1.912
399.22	1.9
401.86	1.898
404.25	1.899
406.08	1.901
408.15	1.905
410.24	1.912
412.31	1.915
414.44	1.918
416.53	1.925
418.63	1.932
420.67	1.931
422.71	1.929
424.96	1.927
427	1.926
429.1	1.925
431.2	1.925
433.29	1.925
435.39	1.925
437.49	1.925
439.58	1.925
441.68	1.925
443.77	1.925
445.77	1.925
447.96	1.925
450.06	1.927
452.51	1.93
454.25	1.939
456.28	1.948
458.44	1.959
460.67	1.969
462.61	1.976
464.73	1.98
466.79	1.983
468.92	1.986
471.28	1.989
473.11	1.993
475.2	2.007
477.3	2.02
479.39	2.034
481.69	2.053
483.59	2.068
485.68	2.088
488.22	2.114
489.87	2.129
492	2.154
494.06	2.177
496.16	2.197
498.25	2.218
500.35	2.238
502.4	2.256
504.54	2.279
506.99	2.304
508.73	2.32
510.83	2.34
512.92	2.354
515.46	2.374
517.11	2.388
519.21	2.408
521.3	2.429
523.4	2.442
525.66	2.458
527.59	2.469
529.69	2.483
531.78	2.498
533.62	2.513
535.97	2.528
538.07	2.537
540.16	2.544
542.29	2.551
544.35	2.558
546.45	2.565
548.54	2.571
550.96	2.58
552.74	2.585
554.83	2.592
556.93	2.599
559.02	2.605
561.12	2.612
563.21	2.619
565.25	2.625
567.29	2.631
569.43	2.637
571.37	2.641
573.69	2.646
575.45	2.651
578.1	2.658
580.14	2.666
581.98	2.673
584.17	2.673
586.27	2.667
588.36	2.653
590.45	2.646
592.49	2.642
594.64	2.639
596.67	2.635
598.82	2.631
600.93	2.626
603.03	2.619
605.25	2.613
607.22	2.605
609.31	2.599
611.27	2.593
613.71	2.586
615.6	2.585
617.69	2.585
619.94	2.587
621.89	2.592
623.98	2.599
626.08	2.612
628.1	2.622
630.27	2.626
631.98	2.618
634.46	2.592
636.55	2.578
638.61	2.561
640.75	2.524
643.2	2.491
644.94	2.469
646.97	2.447
649.13	2.422
651.22	2.401
653.32	2.381
655.41	2.354
657.51	2.333
659	2.319
661.7	2.293
663.8	2.265
665.33	2.251
667.99	2.231
670.23	2.216
672.18	2.197
674.27	2.17
675.63	2.156
678.46	2.129
680.56	2.122
683.49	2.121
685.12	2.125
686.85	2.136
688.9	2.149
690.73	2.164
693.29	2.184
695.73	2.192
697.32	2.19
699.42	2.184
701.51	2.17
703.61	2.136
705.7	2.095
707.8	2.027
709.9	1.966
711.99	1.878
714.09	1.782
716.18	1.714
718.28	1.639
720.37	1.578
722.47	1.483
724.71	1.326
