Uv/Vis Spectrum: 7H-benzimidazo[2,1-a]benz[de]isoquinolin-7-one
Formula: C18H10N2O
CAS: 23749-58-8
Instrument: SF-8
Origin: INSTITUTE OF ENERGY PROBLEMS OF CHEMICAL PHYSICS, RAS
Wavelength (nm)	Logarithm epsilon
222.713	4.601
223.713	4.595
224.713	4.588
225.713	4.581
226.713	4.574
227.713	4.568
228.713	4.563
229.713	4.557
230.713	4.551
231.713	4.543
232.713	4.534
233.713	4.523
234.713	4.51
235.713	4.494
236.713	4.476
237.713	4.456
238.713	4.434
239.713	4.412
240.713	4.388
241.713	4.365
242.713	4.343
243.713	4.323
244.713	4.305
245.713	4.29
246.713	4.278
247.713	4.27
248.713	4.265
249.713	4.264
250.713	4.266
251.713	4.27
252.713	4.275
253.713	4.281
254.713	4.286
255.713	4.288
256.713	4.287
257.713	4.281
258.713	4.269
259.713	4.251
260.713	4.227
261.281	4.213
262.281	4.181
263.281	4.142
264.281	4.104
265.281	4.071
266.281	4.044
267.281	4.024
268.281	4.013
269.281	4.008
270.281	4.01
271.281	4.015
272.281	4.024
273.281	4.035
274.281	4.048
275.281	4.065
276.281	4.088
276.966	4.107
277.966	4.163
278.966	4.195
279.966	4.207
280.966	4.206
281.966	4.197
282.966	4.184
283.966	4.17
284.966	4.158
285.966	4.151
286.966	4.15
287.966	4.155
288.966	4.166
289.966	4.182
290.966	4.2
291.966	4.218
292.966	4.233
293.966	4.238
294.966	4.228
295.966	4.197
296.966	4.136
297.966	4.037
298.961	3.88
299.961	3.82
300.961	3.776
301.961	3.745
302.961	3.724
303.961	3.71
304.961	3.703
305.961	3.7
306.961	3.699
307.961	3.701
308.961	3.704
309.961	3.708
310.961	3.712
311.961	3.716
312.961	3.72
313.961	3.725
314.961	3.73
315.961	3.735
316.961	3.741
317.961	3.747
318.961	3.755
319.961	3.763
320.961	3.773
321.961	3.783
322.961	3.795
323.597	3.805
324.597	3.821
325.597	3.835
326.597	3.848
327.597	3.86
328.597	3.871
329.597	3.881
330.597	3.891
331.597	3.9
332.597	3.908
333.597	3.916
334.597	3.924
335.597	3.931
336.597	3.939
337.597	3.946
338.597	3.953
339.597	3.96
340.597	3.967
341.597	3.974
342.597	3.981
343.597	3.988
344.597	3.995
345.597	4.002
346.597	4.01
347.597	4.017
348.597	4.024
349.597	4.031
350.597	4.039
351.597	4.046
352.597	4.053
353.597	4.06
354.597	4.067
355.597	4.074
356.597	4.08
357.597	4.086
358.597	4.092
359.597	4.098
360.597	4.104
361.597	4.109
362.597	4.114
363.597	4.118
364.597	4.122
365.597	4.125
366.597	4.128
367.597	4.13
368.597	4.132
369.597	4.133
370.597	4.134
371.597	4.134
372.597	4.133
373.597	4.131
374.597	4.129
375.597	4.127
376.597	4.123
377.597	4.119
378.597	4.114
379.597	4.108
380.597	4.102
381.597	4.095
382.597	4.087
383.597	4.079
384.597	4.07
385.597	4.06
386.597	4.049
387.597	4.038
388.597	4.026
389.597	4.014
390.597	4.001
391.597	3.987
392.597	3.973
393.597	3.958
394.597	3.943
395.597	3.928
396.597	3.912
397.597	3.895
398.597	3.879
399.597	3.862
400.597	3.844
401.597	3.827
402.597	3.809
403.597	3.791
404.597	3.773
405.597	3.754
406.597	3.736
407.597	3.718
408.597	3.699
409.597	3.681
410.597	3.662
411.597	3.644
412.597	3.625
413.597	3.607
414.597	3.589
415.597	3.57
416.597	3.552
417.597	3.534
418.597	3.516
419.597	3.498
420.597	3.479
421.597	3.461
422.597	3.443
423.597	3.424
424.597	3.406
425.597	3.387
426.597	3.367
427.597	3.348
428.597	3.327
429.597	3.306
430.597	3.285
431.597	3.262
432.597	3.238
433.597	3.213
434.597	3.187
435.597	3.159
436.597	3.129
437.597	3.097
438.597	3.063
