Uv/Vis Spectrum: Diazene, bis(2,3,5,6-tetrafluorophenyl)-1-oxide
Formula: C12H2F8N2O
CAS: 2379-18-2
Melting point: 62-63
Instrument: SFD-2
Origin: INSTITUTE OF ENERGY PROBLEMS OF CHEMICAL PHYSICS, RAS
Wavelength (nm)	Logarithm epsilon
223.76	3.997
228.31	4.011
232.87	4.016
237.42	4.001
241.46	3.977
243.99	3.942
247.02	3.907
249.55	3.868
251.57	3.828
253.6	3.788
255.62	3.749
258.15	3.714
262.19	3.694
266.74	3.699
270.28	3.729
273.31	3.759
276.85	3.788
280.9	3.808
285.45	3.808
290	3.808
294.55	3.803
299.1	3.793
303.15	3.774
307.19	3.749
310.22	3.719
313.26	3.684
315.79	3.65
318.31	3.615
321.35	3.58
323.88	3.541
326.4	3.506
329.44	3.471
331.97	3.437
334.49	3.402
337.02	3.367
339.55	3.333
341.57	3.293
344.1	3.258
346.63	3.219
348.65	3.179
350.67	3.14
352.19	3.1
354.21	3.06
356.24	3.021
357.75	2.981
359.27	2.941
360.79	2.902
362.3	2.862
363.82	2.818
365.34	2.778
367.36	2.738
369.38	2.699
370.9	2.659
372.92	2.619
374.94	2.58
376.97	2.54
378.99	2.501
381.01	2.461
382.53	2.421
384.04	2.382
