Uv/Vis Spectrum: 1,2-Benzofluorene
Formula: C17H12
CAS: 238-84-6
Melting point: 189.5
Boiling point: 405
Instrument: n.i.g.
Origin: INSTITUTE OF ENERGY PROBLEMS OF CHEMICAL PHYSICS, RAS
Wavelength (nm)	Logarithm epsilon
232.952	4.18072
235.708	4.18086
236.315	4.17546
236.853	4.17548
237.388	4.18094
238.53	4.181
239.065	4.18646
239.67	4.18649
242.412	4.21516
243.011	4.22674
243.014	4.22063
243.546	4.2322
246.875	4.29486
247.402	4.31731
247.41	4.30032
248.001	4.32888
248.004	4.32277
249.071	4.33981
250.188	4.39149
250.725	4.39152
251.319	4.41396
251.327	4.39698
252.974	4.46499
253.503	4.482
253.509	4.47045
254.016	4.53297
254.038	4.48746
254.545	4.54998
254.551	4.53843
255.136	4.57854
255.15	4.55001
255.648	4.62951
255.673	4.57857
257.328	4.6296
257.869	4.62419
259.011	4.62425
259.014	4.61814
260.157	4.61819
262.346	4.67537
262.349	4.66925
262.87	4.70324
262.881	4.68083
265.676	4.73735
268.498	4.73749
268.501	4.73206
269.039	4.73208
269.045	4.72054
269.585	4.71513
269.587	4.70969
271.29	4.66427
271.31	4.62487
271.937	4.57939
271.94	4.57328
272.48	4.56787
272.483	4.56244
273.024	4.55635
273.043	4.51695
273.141	4.31861
273.152	4.29619
273.6	4.47758
273.62	4.43751
273.626	4.42664
273.651	4.37569
273.679	4.31863
273.693	4.2901
273.738	4.19976
274.228	4.4321
274.345	4.19436
274.914	4.13189
274.922	4.11491
275.463	4.10883
275.466	4.10339
277.174	4.0471
277.179	4.03555
277.787	4.03015
277.79	4.02403
278.328	4.02406
278.336	4.00708
279.484	3.99627
279.487	3.99015
280.027	3.98475
283.933	3.96796
286.219	3.96808
291.248	3.99075
292.861	3.99083
295.68	3.99709
296.221	3.991
296.224	3.98557
296.831	3.98016
296.837	3.96861
297.375	3.96864
297.915	3.96324
299.595	3.96332
300.197	3.96879
303.558	3.96895
303.56	3.96352
304.098	3.96355
304.639	3.95746
307.461	3.9576
307.464	3.95217
308.002	3.9522
311.362	3.95237
311.897	3.95783
312.502	3.95786
313.036	3.964
313.571	3.96946
313.574	3.96403
314.708	3.98107
316.388	3.98115
319.211	3.98129
319.751	3.97521
319.754	3.96977
321.457	3.92435
321.468	3.90193
322.028	3.85645
322.048	3.81705
322.672	3.777
322.678	3.76613
323.218	3.76005
323.229	3.73763
323.255	3.68669
323.795	3.68128
323.812	3.64732
324.439	3.60184
324.45	3.57874
324.991	3.57334
324.999	3.55635
325.559	3.51087
325.579	3.47147
326.186	3.46607
326.198	3.44297
326.735	3.443
326.744	3.42602
327.281	3.42605
327.295	3.3982
327.903	3.39211
327.906	3.38668
328.443	3.38671
330.113	3.40921
330.124	3.38679
330.647	3.41535
332.327	3.41543
332.333	3.40389
332.871	3.40391
332.876	3.39236
332.89	3.36384
332.893	3.3584
333.501	3.353
333.529	3.29594
334.069	3.29053
334.08	3.26812
334.621	3.26203
334.632	3.23962
335.24	3.23421
335.777	3.23424
335.78	3.22812
336.321	3.22272
336.925	3.22275
337.998	3.22824
338.001	3.2228
338.6	3.23438
339.132	3.24528
339.137	3.23441
340.255	3.28541
340.796	3.27933
341.333	3.27935
341.344	3.25694
342.512	3.20605
342.531	3.16665
343.089	3.1266
343.095	3.11505
343.702	3.10965
343.716	3.08112
344.276	3.03632
344.817	3.03023
344.828	3.00781
344.834	2.99627
344.842	2.97929
345.435	3.00241
345.449	2.97388
345.469	2.93449
345.48	2.91139
346.021	2.90598
346.035	2.87745
346.6	2.8211
346.629	2.76404
346.659	2.70223
346.671	2.67914
346.713	2.59423
346.718	2.58268
346.746	2.5263
347.267	2.69615
347.272	2.68528
347.278	2.67373
347.286	2.65675
347.32	2.58882
