Uv/Vis Spectrum: Benz[a]anthracene, 10-methyl-
Formula: C19H14
CAS: 2381-15-9
Melting point: 140-145.5
Instrument: Cary M 11
Origin: INSTITUTE OF ENERGY PROBLEMS OF CHEMICAL PHYSICS, RAS
Wavelength (nm)	Logarithm epsilon
237.53	4.604
237.66	4.599
237.83	4.593
238	4.587
238.13	4.582
238.26	4.577
238.43	4.571
238.55	4.567
238.73	4.562
238.9	4.557
239.03	4.553
239.18	4.547
239.33	4.541
239.45	4.536
239.64	4.532
239.73	4.527
239.91	4.521
240.09	4.516
240.2	4.512
240.32	4.507
240.55	4.499
240.65	4.496
240.79	4.492
240.96	4.488
241.16	4.482
241.28	4.478
241.4	4.474
241.62	4.467
241.78	4.464
241.93	4.46
242.08	4.456
242.24	4.452
242.39	4.449
242.55	4.445
242.67	4.442
242.81	4.439
242.97	4.436
243.15	4.433
243.31	4.43
243.58	4.427
243.96	4.424
244.32	4.424
244.66	4.427
244.9	4.429
245.69	4.441
246.54	4.454
247.45	4.471
249.08	4.495
249.9	4.509
251.07	4.526
252.4	4.544
253.07	4.55
254.6	4.568
255.63	4.579
256.84	4.593
258.06	4.606
259.12	4.62
260.01	4.63
260.67	4.637
261.14	4.641
261.6	4.645
262	4.647
262.22	4.648
262.46	4.648
262.7	4.649
262.9	4.649
263.1	4.649
263.81	4.645
263.99	4.642
264.18	4.64
264.36	4.637
264.55	4.635
264.73	4.632
264.91	4.629
265.1	4.625
265.29	4.622
265.47	4.62
265.66	4.617
265.85	4.613
266.03	4.609
266.22	4.606
266.44	4.603
266.64	4.6
266.8	4.596
266.97	4.593
267.55	4.581
267.85	4.574
268.17	4.567
268.39	4.562
268.61	4.558
268.86	4.556
269.05	4.556
269.26	4.556
269.52	4.559
269.82	4.565
270.01	4.568
270.2	4.571
270.41	4.576
271.17	4.593
271.33	4.597
271.56	4.604
271.75	4.609
271.94	4.614
272.14	4.62
272.34	4.627
272.53	4.632
272.72	4.637
272.92	4.642
273.11	4.647
273.32	4.652
273.51	4.654
273.71	4.656
273.91	4.661
274.11	4.663
274.31	4.666
274.5	4.668
274.68	4.67
274.9	4.672
275.1	4.673
275.3	4.673
275.5	4.67
275.7	4.666
275.9	4.663
276.13	4.661
276.31	4.658
276.51	4.654
276.75	4.65
276.94	4.647
277.1	4.643
277.3	4.64
277.52	4.637
277.72	4.635
277.9	4.633
278.13	4.632
278.33	4.632
278.54	4.632
278.75	4.633
278.95	4.635
279.15	4.638
279.35	4.641
279.56	4.645
279.78	4.648
279.98	4.654
280.18	4.661
280.39	4.668
280.6	4.675
280.78	4.683
281.01	4.695
281.22	4.712
281.49	4.73
281.71	4.745
281.89	4.754
282.06	4.766
282.27	4.781
282.48	4.802
282.69	4.82
282.9	4.834
283.11	4.85
283.32	4.863
283.54	4.87
283.75	4.877
283.96	4.884
284.17	4.889
284.42	4.893
284.6	4.895
284.81	4.895
285.03	4.895
285.24	4.893
285.46	4.889
285.67	4.883
285.89	4.867
286.1	4.857
286.32	4.842
286.53	4.831
286.75	4.815
286.97	4.8
287.19	4.783
287.4	4.77
287.62	4.755
287.84	4.734
288.06	4.72
288.28	4.712
288.5	4.708
288.72	4.706
288.94	4.702
289.16	4.701
289.38	4.701
289.6	4.701
289.82	4.703
290.04	4.706
290.26	4.708
290.51	4.711
290.71	4.714
290.93	4.717
291.13	4.721
291.38	4.726
291.62	4.73
291.83	4.736
292.05	4.744
292.28	4.753
292.5	4.768
292.83	4.795
293.09	4.817
293.28	4.834
293.44	4.848
293.64	4.864
293.86	4.883
294.09	4.91
294.35	4.937
294.55	4.954
294.78	4.976
295.01	4.986
295.24	4.992
295.47	4.993
295.7	4.992
295.87	4.983
296.16	4.954
296.39	4.88
296.67	4.826
296.98	4.768
297.23	4.725
297.54	4.673
297.73	4.645
297.88	4.624
298.02	4.609
298.25	4.593
298.49	4.576
298.67	4.562
298.93	4.545
299.13	4.528
299.43	4.506
299.68	4.484
299.91	4.459
300.14	4.433
300.38	4.409
300.62	4.392
300.87	4.376
301.1	4.369
301.33	4.364
301.56	4.36
301.81	4.356
302.06	4.355
302.3	4.355
302.54	4.355
302.78	4.358
303.02	4.365
303.25	4.375
303.51	4.392
303.75	4.404
303.99	4.404
304.24	4.392
304.48	4.369
304.73	4.351
304.97	4.333
305.21	4.317
305.46	4.305
305.71	4.295
305.95	4.284
306.19	4.275
306.45	4.267
306.7	4.255
