Uv/Vis Spectrum: Diazene, (4-methoxyphenyl)phenyl-
Formula: C13H12N2O
CAS: 2396-60-3
Melting point: 53-54
Instrument: Unicam SP 800
Origin: INSTITUTE OF ENERGY PROBLEMS OF CHEMICAL PHYSICS, RAS
Wavelength (nm)	Logarithm epsilon
201.86	4.266
203.22	4.252
204.58	4.242
205.59	4.222
206.61	4.201
207.46	4.174
208.14	4.147
208.98	4.119
209.49	4.092
210.17	4.065
210.68	4.037
211.19	4.01
211.86	3.983
212.54	3.955
213.05	3.928
213.73	3.901
214.58	3.877
215.76	3.856
217.29	3.853
218.81	3.856
220.17	3.87
221.36	3.887
222.54	3.904
223.73	3.921
224.92	3.938
226.1	3.955
227.46	3.969
228.64	3.986
230	4
231.36	4.013
232.88	4.02
234.24	4.034
235.76	4.037
237.29	4.041
238.81	4.037
240.34	4.034
241.7	4.02
243.05	4.007
244.58	3.996
245.93	3.983
247.29	3.966
248.64	3.949
249.83	3.928
250.85	3.908
252.03	3.887
253.22	3.867
254.41	3.846
255.25	3.822
256.1	3.795
257.12	3.775
257.97	3.751
258.81	3.723
259.66	3.699
260.51	3.676
261.36	3.652
262.2	3.628
263.22	3.604
264.24	3.583
265.09	3.559
266.27	3.539
267.8	3.529
269.32	3.529
270.85	3.529
272.37	3.529
273.82	3.536
275.2	3.545
276.61	3.559
277.97	3.57
279.32	3.583
280.68	3.597
282.03	3.611
283.4	3.624
284.92	3.638
286.27	3.652
287.63	3.665
288.98	3.679
290.34	3.693
291.49	3.71
292.76	3.729
293.91	3.744
294.92	3.761
295.99	3.777
297.29	3.798
298.64	3.815
300	3.833
301.19	3.853
302.37	3.874
303.56	3.891
304.75	3.908
305.93	3.925
307.12	3.942
308.31	3.959
309.49	3.976
310.85	3.993
312.03	4.01
313.39	4.024
314.58	4.041
315.93	4.058
317.29	4.075
318.64	4.089
320	4.106
321.36	4.119
322.71	4.133
324.08	4.144
325.59	4.153
326.95	4.167
328.31	4.177
329.8	4.189
331.19	4.198
332.84	4.207
334.07	4.215
335.59	4.218
337.12	4.225
338.65	4.232
340.17	4.235
341.7	4.235
343.22	4.235
344.75	4.239
346.27	4.235
347.8	4.235
349.32	4.232
350.85	4.229
352.37	4.218
353.73	4.208
355.26	4.198
356.61	4.181
357.97	4.167
359.32	4.153
360.68	4.143
362.04	4.126
363.39	4.109
364.58	4.092
365.76	4.075
366.78	4.051
367.97	4.034
368.98	4.013
370	3.99
371.02	3.969
372.04	3.949
372.88	3.921
373.9	3.897
374.75	3.874
375.76	3.85
376.61	3.822
377.46	3.798
378.31	3.775
378.98	3.747
379.83	3.723
380.68	3.699
381.53	3.672
382.37	3.645
383.05	3.617
383.9	3.59
384.41	3.563
385.26	3.536
385.93	3.508
386.44	3.481
387.29	3.454
388.14	3.426
388.81	3.399
389.83	3.375
390.51	3.348
391.53	3.327
392.37	3.3
393.39	3.28
394.41	3.259
395.43	3.235
396.34	3.217
397.62	3.2
399.49	3.184
400.85	3.17
402.37	3.163
403.9	3.153
405.43	3.15
406.95	3.146
408.36	3.147
410	3.15
411.53	3.153
413.05	3.157
414.43	3.162
416.1	3.167
417.63	3.174
419.15	3.181
420.68	3.184
422.2	3.191
423.73	3.194
425.26	3.198
426.78	3.201
428.31	3.204
429.83	3.204
431.36	3.204
432.88	3.204
434.5	3.203
435.9	3.199
437.46	3.194
438.82	3.19
440.34	3.184
441.87	3.177
443.14	3.172
444.92	3.163
446.29	3.158
447.8	3.146
449.44	3.138
450.68	3.129
452.21	3.123
453.56	3.112
454.92	3.099
456.44	3.088
457.8	3.078
459.15	3.064
460.51	3.051
461.87	3.041
463.22	3.027
464.58	3.013
465.93	2.996
467.29	2.979
468.65	2.962
470	2.945
471.36	2.928
472.71	2.911
474.07	2.894
475.43	2.877
476.61	2.86
477.97	2.843
479.15	2.822
480.34	2.802
481.7	2.785
482.88	2.764
484.24	2.747
485.43	2.727
486.44	2.709
487.8	2.686
488.99	2.665
490.17	2.648
491.36	2.628
492.38	2.607
493.39	2.587
494.58	2.566
495.37	2.547
496.61	2.522
497.63	2.501
498.82	2.481
499.83	2.46
500.68	2.436
501.7	2.412
502.88	2.392
503.9	2.368
504.92	2.348
505.93	2.327
506.78	2.3
507.97	2.279
508.82	2.255
509.83	2.235
510.85	2.211
511.87	2.191
512.71	2.167
513.73	2.146
514.58	2.122
515.43	2.098
516.44	2.078
517.29	2.054
518.31	2.03
519.15	2.006
520	1.982
521.02	1.958
521.87	1.935
522.88	1.911
523.73	1.887
524.58	1.859
525.26	1.832
526.27	1.808
527.12	1.784
527.97	1.757
528.82	1.733
529.66	1.709
530.51	1.685
531.36	1.658
532.23	1.635
533.05	1.607
533.9	1.583
534.75	1.556
535.54	1.531
536.44	1.504
537.25	1.482
538.14	1.453
538.99	1.429
539.78	1.407
540.68	1.378
541.36	1.351
542.21	1.327
542.88	1.3
543.73	1.276
544.41	1.248
545.26	1.225
546.1	1.197
546.95	1.173
