Uv/Vis Spectrum: 5,7,12,14-Pentacenetetrone
Formula: C22H10O4
CAS: 23912-79-0
Melting point: > 350
Instrument: unknown
Origin: INSTITUTE OF ENERGY PROBLEMS OF CHEMICAL PHYSICS, RAS
Wavelength (nm)	Logarithm epsilon
205.69	3.867
209.1	3.917
212.52	3.967
215.93	4.017
217.07	4.068
220.48	4.118
222.76	4.168
225.03	4.218
227.31	4.269
228.45	4.319
230.72	4.369
233	4.419
235.27	4.469
236.41	4.52
238.69	4.57
242.1	4.62
245.51	4.67
248.93	4.715
252.34	4.765
256.89	4.81
261.44	4.855
267.13	4.899
273.96	4.938
283.06	4.961
289.89	4.922
292.17	4.871
294.44	4.821
296.72	4.771
300.13	4.721
302.41	4.631
303.54	4.62
305.82	4.52
309.23	4.458
312.65	4.285
316.06	4.151
319.47	4.012
322.89	3.833
326.3	3.571
329.71	3.437
333.13	3.437
336.54	3.459
339.95	3.47
343.37	3.493
346.78	3.521
350.2	3.543
353.61	3.576
357.02	3.61
360.44	3.649
363.85	3.688
367.26	3.716
370.68	3.727
374.09	3.755
377.5	3.783
380.92	3.811
384.33	3.828
387.74	3.867
391.16	3.883
394.57	3.895
397.98	3.895
401.4	3.889
404.81	3.85
408.23	3.789
411.64	3.688
415.05	3.615
418.47	3.526
421.88	3.47
425.29	3.342
428.71	3.236
432.12	3.163
435.53	3.046
438.95	2.957
442.36	2.884
445.77	2.801
449.19	2.734
452.6	2.672
456.02	2.611
459.43	2.561
462.84	2.516
466.26	2.477
469.67	2.427
473.08	2.376
476.5	2.343
479.91	2.298
483.32	2.276
486.74	2.242
490.15	2.214
493.56	2.181
496.98	2.159
500.39	2.131
503.8	2.108
507.22	2.086
510.63	2.069
