Uv/Vis Spectrum: 1,2:7,8-Dibenzocarbazole
Formula: C20H13N
CAS: 239-64-5
Instrument: Ziess M4Q
Origin: INSTITUTE OF ENERGY PROBLEMS OF CHEMICAL PHYSICS, RAS
Wavelength (nm)	Logarithm epsilon
233.04	4.599
233.16	4.599
233.28	4.599
233.39	4.599
233.51	4.597
233.62	4.597
233.74	4.597
233.86	4.597
233.97	4.597
234.09	4.595
234.44	4.592
234.79	4.588
235.15	4.588
235.5	4.586
235.86	4.586
236.21	4.586
236.57	4.586
236.93	4.584
237.29	4.584
237.65	4.586
238.01	4.586
238.37	4.59
238.74	4.595
239.1	4.595
239.47	4.597
239.84	4.597
240.2	4.597
240.57	4.595
240.95	4.59
241.32	4.584
241.69	4.575
242.06	4.567
242.44	4.558
242.82	4.55
243.19	4.541
243.57	4.535
243.95	4.528
244.33	4.52
244.72	4.514
245.1	4.507
245.49	4.499
245.87	4.492
246.26	4.486
246.65	4.477
247.04	4.471
247.43	4.462
247.82	4.458
248.21	4.452
248.61	4.443
249	4.439
249.4	4.43
249.8	4.43
250.2	4.422
250.6	4.418
251	4.411
251.41	4.407
251.81	4.405
252.22	4.398
252.63	4.396
253.03	4.388
253.45	4.386
253.86	4.383
254.27	4.377
254.68	4.375
255.1	4.373
255.52	4.366
255.93	4.364
256.35	4.364
256.78	4.364
257.2	4.362
257.62	4.358
258.05	4.358
258.47	4.356
258.9	4.356
259.33	4.358
259.76	4.358
260.19	4.36
260.63	4.36
261.06	4.362
261.5	4.362
261.94	4.364
262.38	4.366
262.82	4.371
263.26	4.373
263.71	4.375
264.15	4.381
264.6	4.386
265.05	4.392
265.5	4.394
265.95	4.398
266.4	4.405
266.86	4.411
267.31	4.418
267.77	4.424
268.23	4.43
268.69	4.439
269.15	4.447
269.62	4.456
270.08	4.462
270.55	4.469
271.02	4.469
271.49	4.473
271.96	4.484
272.44	4.494
272.91	4.505
273.39	4.522
273.87	4.537
274.35	4.55
274.83	4.563
275.32	4.578
275.8	4.586
276.29	4.588
276.78	4.588
277.27	4.584
277.76	4.58
278.26	4.575
278.75	4.569
279.25	4.556
279.75	4.543
280.25	4.528
280.75	4.507
281.26	4.494
281.77	4.471
282.28	4.464
282.79	4.46
283.3	4.441
283.81	4.422
284.33	4.403
284.85	4.39
285.37	4.368
285.89	4.356
286.41	4.339
286.94	4.326
287.47	4.315
288	4.304
288.53	4.294
289.06	4.285
289.6	4.279
290.13	4.27
290.67	4.264
291.21	4.258
291.76	4.251
292.3	4.247
292.85	4.243
293.4	4.245
293.95	4.249
294.51	4.251
295.06	4.264
295.62	4.281
296.18	4.3
296.74	4.315
297.31	4.336
297.87	4.358
298.44	4.375
299.01	4.379
299.58	4.386
300.16	4.383
300.74	4.379
301.32	4.377
301.9	4.368
302.48	4.358
303.07	4.334
303.66	4.309
304.25	4.279
304.84	4.249
305.44	4.206
306.04	4.172
306.64	4.132
307.24	4.1
307.84	4.059
308.45	4.006
309.06	3.976
309.67	3.946
310.29	3.914
310.9	3.884
311.52	3.852
312.15	3.822
312.77	3.801
313.4	3.78
314.03	3.76
314.66	3.745
315.29	3.728
315.93	3.716
316.57	3.696
317.21	3.686
317.86	3.673
318.51	3.664
319.16	3.654
319.81	3.645
320.46	3.641
321.12	3.641
321.78	3.647
322.45	3.658
323.11	3.675
323.78	3.688
324.46	3.705
325.13	3.724
325.81	3.748
326.49	3.777
327.17	3.812
327.86	3.867
328.55	3.899
329.24	3.923
329.93	3.931
330.63	3.935
331.26	3.936
332.01	3.936
332.74	3.933
333.45	3.929
334.16	3.925
334.88	3.927
335.6	3.931
336.32	3.944
337.05	3.974
337.77	4.019
338.51	4.044
339.24	4.065
340.16	4.087
340.96	4.107
341.62	4.125
342.21	4.147
342.96	4.181
343.72	4.206
344.43	4.232
345.23	4.255
346	4.279
346.34	4.286
346.77	4.29
347.15	4.285
347.54	4.272
348.31	4.253
349.09	4.225
349.87	4.196
350.65	4.17
351.44	4.147
352.23	4.123
353.03	4.102
353.83	4.093
354.63	4.091
355.44	4.091
356.35	4.095
357.06	4.112
357.88	4.168
358.7	4.215
359.52	4.262
360.35	4.309
361.19	4.354
361.94	4.392
362.74	4.428
363.44	4.455
364.05	4.471
364.55	4.482
365	4.473
365.41	4.458
366.26	4.386
367.12	4.283
367.99	4.183
368.86	4.083
369.88	3.967
370.63	3.863
371.2	3.782
371.83	3.697
372.29	3.625
372.75	3.534
373.23	3.466
373.85	3.366
374.45	3.259
375.05	3.161
375.65	3.063
376.25	2.956
376.86	2.879
377.46	2.787
378.09	2.702
378.68	2.619
379.3	2.557
379.91	2.512
380.53	2.44
381.15	2.393
381.77	2.339
382.39	2.277
383.01	2.226
383.64	2.175
384.27	2.096
384.9	2.047
385.53	2.004
386.17	1.923
386.8	1.874
387.44	1.8
388.08	1.75
388.73	1.699
389.37	1.625
390.02	1.576
