Uv/Vis Spectrum: indolo[3,2-b] carbazole
Formula: C18H10N2
CAS: 241-55-4
Melting point: 350
Instrument: Cary 14
Origin: INSTITUTE OF ENERGY PROBLEMS OF CHEMICAL PHYSICS, RAS
Wavelength (nm)	Logarithm epsilon
211.027	4.276
211.922	4.261
212.824	4.244
213.734	4.227
214.651	4.21
215.577	4.195
216.51	4.182
217.452	4.171
218.402	4.162
219.36	4.155
220.326	4.15
221.301	4.148
222.285	4.146
223.278	4.147
224.279	4.148
225.29	4.149
226.31	4.151
227.339	4.152
228.377	4.154
229.425	4.154
230.483	4.154
231.55	4.152
232.627	4.15
233.715	4.145
234.812	4.14
235.92	4.133
237.039	4.125
238.168	4.115
239.308	4.104
240.458	4.092
241.62	4.078
242.794	4.064
243.978	4.049
245.175	4.033
246.383	4.016
247.603	3.998
248.835	3.979
250.08	3.958
250.343	3.951
251.603	3.925
252.875	3.903
254.161	3.886
255.459	3.876
256.771	3.874
258.096	3.88
259.436	3.895
260.789	3.917
262.156	3.947
263.538	3.983
264.934	4.025
266.346	4.071
267.772	4.12
269.214	4.171
270.671	4.223
272.144	4.275
273.634	4.326
275.14	4.375
276.662	4.423
278.201	4.469
279.758	4.512
281.332	4.554
282.924	4.595
283.388	4.606
285.003	4.641
286.637	4.671
288.289	4.694
289.961	4.711
291.653	4.721
293.364	4.724
295.095	4.72
296.847	4.707
298.62	4.686
300.414	4.657
302.23	4.621
304.068	4.571
305.929	4.527
307.812	4.478
309.719	4.408
312.161	4.303
314.122	4.232
316.108	4.145
318.119	4.043
320.156	3.94
322.22	3.856
324.309	3.784
326.426	3.728
328.572	3.685
330.745	3.65
332.947	3.618
335.179	3.583
337.441	3.543
339.734	3.495
342.058	3.441
342.365	3.434
344.726	3.381
347.119	3.343
349.546	3.318
352.007	3.302
354.502	3.295
357.034	3.294
359.602	3.298
362.207	3.305
364.85	3.316
367.532	3.328
370.253	3.341
373.015	3.355
375.819	3.369
378.665	3.382
381.555	3.395
384.489	3.407
387.468	3.419
390.495	3.43
393.568	3.441
396.691	3.452
399.863	3.464
403.087	3.476
406.363	3.49
409.692	3.505
413.077	3.522
416.518	3.541
420.017	3.561
423.575	3.581
427.194	3.601
427.385	3.61
431.07	3.643
434.819	3.678
438.633	3.713
442.515	3.747
446.467	3.782
450.489	3.815
454.585	3.847
458.756	3.877
463.004	3.903
471.039	3.949
475.519	3.958
480.084	3.967
484.739	3.983
489.484	4.003
494.323	4.021
499.259	4.028
504.295	4.018
509.433	3.987
514.677	3.933
519.887	3.906
525.349	3.895
530.928	3.9
536.626	3.894
542.448	3.816
548.239	3.656
554.317	3.471
560.531	3.247
566.886	2.948
573.387	2.761
