Uv/Vis Spectrum: Quindoxin
Formula: C8H6N2O2
CAS: 2423-66-7
Melting point: 241-243
Instrument: Hitachi EPS-3
Origin: INSTITUTE OF ENERGY PROBLEMS OF CHEMICAL PHYSICS, RAS
Wavelength (nm)	Logarithm epsilon
220.27	3.979
221.27	3.976
222.27	3.977
223.27	3.98
224.27	3.984
225.27	3.989
226.27	3.994
227.27	4
228.27	4.008
229.27	4.02
230.27	4.036
231.27	4.057
232.27	4.084
233.27	4.117
234.27	4.155
235.27	4.196
236.258	4.234
237.258	4.287
238.258	4.342
239.258	4.393
240.258	4.434
241.258	4.463
242.258	4.481
243.258	4.489
244.258	4.487
245.258	4.479
246.258	4.467
247.258	4.453
248.258	4.437
249.258	4.419
250.069	4.407
250.522	4.391
251.522	4.371
252.522	4.343
253.522	4.31
254.522	4.273
255.522	4.233
256.522	4.192
257.522	4.151
258.522	4.111
259.522	4.072
260.522	4.035
261.522	4
262.522	3.968
263.522	3.939
264.522	3.914
265.522	3.891
266.522	3.872
267.522	3.856
268.522	3.843
269.522	3.833
270.522	3.825
271.522	3.82
272.522	3.817
273.522	3.815
274.522	3.816
275.522	3.817
276.522	3.82
277.522	3.823
278.522	3.828
279.522	3.832
280.522	3.838
281.522	3.844
282.522	3.851
283.423	3.859
284.423	3.869
285.423	3.881
286.423	3.892
287.423	3.902
288.423	3.911
289.423	3.919
290.423	3.927
291.423	3.934
292.423	3.94
293.423	3.945
294.423	3.95
295.423	3.954
296.423	3.958
297.423	3.962
298.423	3.966
299.423	3.969
300.423	3.973
301.423	3.976
302.423	3.979
303.423	3.982
304.423	3.985
305.423	3.987
306.423	3.989
307.423	3.99
308.423	3.991
309.423	3.991
310.423	3.989
311.467	3.987
312.467	3.985
313.467	3.982
314.467	3.979
315.467	3.977
316.467	3.976
317.467	3.976
318.467	3.976
319.467	3.979
320.467	3.982
321.467	3.987
322.467	3.992
323.467	3.998
324.467	4.004
325.467	4.011
326.467	4.017
327.467	4.023
328.467	4.029
329.467	4.035
330.467	4.041
331.42	4.048
332.359	4.055
333.464	4.064
334.464	4.073
335.464	4.082
336.464	4.09
337.464	4.097
338.464	4.104
339.464	4.109
340.464	4.114
341.464	4.117
342.464	4.12
343.464	4.122
344.464	4.123
345.464	4.123
346.464	4.122
347.464	4.12
348.464	4.117
349.464	4.114
350.464	4.11
351.464	4.106
352.464	4.1
353.464	4.095
354.464	4.088
355.464	4.082
356.464	4.075
357.464	4.067
358.464	4.059
359.464	4.051
360.464	4.043
361.464	4.034
362.464	4.025
363.464	4.016
364.464	4.006
365.464	3.996
366.464	3.985
367.464	3.974
368.464	3.962
369.464	3.949
369.776	3.944
370.776	3.931
371.776	3.917
372.776	3.902
373.776	3.887
374.776	3.871
375.776	3.854
376.776	3.836
377.776	3.817
378.776	3.796
379.776	3.775
380.776	3.753
381.776	3.729
382.776	3.704
383.776	3.679
384.776	3.652
385.776	3.624
386.776	3.596
387.776	3.567
388.776	3.539
389.776	3.511
390.776	3.484
391.776	3.458
392.776	3.434
393.776	3.413
