Uv/Vis Spectrum: 2,2,2-trichloro-N,N-diethylacetamide
Formula: C6H10Cl3NO
CAS: 2430-00-4
Melting point: 27
Instrument: SFD-2
Origin: INSTITUTE OF ENERGY PROBLEMS OF CHEMICAL PHYSICS, RAS
Wavelength (nm)	Logarithm epsilon
223.448	2.484
223.948	2.488
224.448	2.493
224.948	2.497
225.448	2.501
225.948	2.504
226.448	2.508
226.948	2.511
227.448	2.514
227.948	2.517
228.448	2.519
228.948	2.522
229.448	2.524
229.948	2.526
230.448	2.529
230.948	2.531
231.448	2.532
231.948	2.534
232.448	2.536
232.948	2.538
233.448	2.539
233.948	2.54
234.448	2.541
234.948	2.542
235.448	2.543
235.948	2.544
236.448	2.544
236.948	2.545
237.448	2.545
237.948	2.545
238.448	2.545
238.948	2.544
239.448	2.543
239.948	2.542
240.448	2.541
240.948	2.54
241.448	2.538
241.948	2.536
242.448	2.534
242.948	2.531
243.448	2.528
243.948	2.525
244.448	2.521
244.948	2.517
245.448	2.513
245.948	2.508
246.448	2.503
246.948	2.498
247.448	2.492
247.948	2.486
248.448	2.479
248.948	2.472
249.448	2.465
249.948	2.457
250.448	2.449
250.948	2.441
251.448	2.432
251.948	2.423
252.448	2.413
252.948	2.403
253.448	2.392
253.948	2.382
254.448	2.37
254.948	2.359
255.448	2.347
255.948	2.334
256.448	2.322
256.948	2.309
257.448	2.295
257.948	2.281
258.448	2.267
258.948	2.253
259.448	2.238
259.948	2.223
260.448	2.208
260.948	2.192
261.448	2.176
261.948	2.16
262.448	2.143
262.948	2.127
263.448	2.11
263.948	2.093
264.448	2.075
264.948	2.058
265.448	2.04
265.948	2.022
266.448	2.004
266.948	1.986
267.448	1.967
267.948	1.949
268.448	1.93
268.948	1.911
269.448	1.893
269.948	1.874
270.448	1.855
270.948	1.836
271.448	1.816
271.948	1.797
272.448	1.778
272.948	1.759
273.448	1.74
273.948	1.72
274.448	1.701
274.948	1.682
275.448	1.662
275.948	1.643
276.448	1.623
276.948	1.604
277.448	1.585
277.948	1.565
278.448	1.546
278.948	1.526
279.448	1.507
279.948	1.487
280.448	1.468
280.948	1.448
281.448	1.429
281.948	1.409
282.448	1.389
282.948	1.369
283.448	1.349
283.948	1.329
284.448	1.309
284.948	1.288
285.448	1.268
285.948	1.247
286.448	1.226
286.948	1.204
287.448	1.183
287.948	1.161
