Uv/Vis Spectrum: 2,3-Benzocarbazole
Formula: C16H11N
CAS: 243-28-7
Melting point: 332
Instrument: Unicam SP 500
Origin: INSTITUTE OF ENERGY PROBLEMS OF CHEMICAL PHYSICS, RAS
Wavelength (nm)	Logarithm epsilon
224.31	4.665
226.51	4.66
228.5	4.651
229.54	4.642
230.59	4.625
231.63	4.611
232.68	4.597
233.79	4.567
234.77	4.545
235.82	4.528
236.74	4.516
237.91	4.514
238.95	4.516
240	4.514
241.05	4.511
242.12	4.514
243.14	4.525
244.18	4.545
245.23	4.557
246.27	4.562
246.87	4.559
247.32	4.551
247.92	4.555
248.37	4.562
249.41	4.588
250.35	4.616
250.87	4.63
251.5	4.634
252.14	4.631
252.55	4.625
253.09	4.63
253.72	4.646
254.64	4.668
255.69	4.702
256.73	4.725
257.78	4.751
258.82	4.777
259.87	4.805
260.92	4.825
261.96	4.848
263.11	4.874
264.06	4.89
265.1	4.9
266.14	4.906
267.19	4.906
268.24	4.903
269.44	4.896
270.28	4.889
271.37	4.874
272.42	4.851
273.46	4.808
274.51	4.777
275.56	4.754
276.61	4.748
277.65	4.754
278.5	4.762
279.14	4.771
279.74	4.774
280.51	4.77
281.83	4.725
282.88	4.628
283.92	4.545
284.97	4.479
286.01	4.433
286.41	4.417
287.06	4.411
287.57	4.414
288.1	4.422
289.15	4.448
290.2	4.516
290.84	4.585
290.95	4.618
291.26	4.623
292.11	4.621
292.64	4.604
293.33	4.565
294.38	4.471
295.42	4.351
296.47	4.233
296.96	4.175
297.17	4.131
297.59	4.083
298.04	4.03
299.08	3.961
300.13	3.941
302.22	3.927
303.27	3.913
304.31	3.893
305.36	3.876
307.45	3.864
308.66	3.872
309.83	3.889
310.88	3.908
311.72	3.933
312.68	3.944
313.73	3.964
314.77	4.024
315.82	4.044
316.79	4.048
317.63	4.043
317.91	4.027
318.95	3.996
320	3.981
320.79	3.97
322.09	3.959
323.64	3.957
325.01	3.966
326.27	3.984
327.32	4.001
328.91	4.054
329.41	4.082
330.46	4.13
331.5	4.165
332.08	4.169
332.71	4.162
333.45	4.112
334.08	4.031
334.64	3.947
335.69	3.838
336.73	3.79
337.78	3.727
338.82	3.661
339.87	3.604
341.57	3.537
343.01	3.478
344.05	3.455
345.1	3.446
347.19	3.441
349.05	3.444
350.53	3.457
351.37	3.472
352.42	3.495
353.46	3.521
354.51	3.532
355.8	3.541
357.65	3.549
360.78	3.567
362.88	3.578
365.3	3.598
367.06	3.618
368.46	3.647
369.15	3.667
370.2	3.684
371.73	3.707
373.33	3.721
375.1	3.72
376.26	3.708
377.95	3.678
380.65	3.641
381.54	3.629
382.75	3.624
383.75	3.629
384.49	3.642
385.12	3.652
385.88	3.664
386.93	3.678
387.97	3.69
389.02	3.695
390.07	3.698
391.11	3.718
392.16	3.727
393.35	3.72
395.29	3.672
396.34	3.644
