Uv/Vis Spectrum: Benzonaphthofuran
Formula: C16H10O
CAS: 243-42-5
Instrument: unknown
Origin: INSTITUTE OF ENERGY PROBLEMS OF CHEMICAL PHYSICS, RAS
Wavelength (nm)	Logarithm epsilon
211.67	4.45
211.83	4.455
212	4.459
212.17	4.463
212.33	4.467
212.5	4.471
212.67	4.475
212.83	4.479
213	4.483
213.17	4.488
213.67	4.504
214.33	4.521
215	4.554
215.67	4.574
216.33	4.599
217	4.62
217.67	4.645
218.33	4.657
219.01	4.659
219.67	4.649
220.33	4.64
221	4.624
221.66	4.612
222.33	4.599
223	4.583
223.61	4.57
224.33	4.558
225	4.541
225.67	4.525
226.33	4.512
227	4.496
227.67	4.479
228.33	4.471
228.94	4.465
229.67	4.459
230.33	4.455
231	4.446
231.67	4.442
232.33	4.438
233	4.438
233.67	4.442
234.33	4.446
235	4.456
235.67	4.463
236.28	4.473
236.91	4.483
237.57	4.495
238.3	4.504
239	4.508
239.67	4.5
240.33	4.488
241	4.483
241.67	4.483
242.33	4.492
243	4.5
243.67	4.517
244.33	4.529
245	4.545
245.67	4.562
246.33	4.583
247	4.607
247.67	4.628
248.33	4.649
249	4.678
249.67	4.719
250.33	4.744
251	4.76
251.67	4.76
252.33	4.76
253	4.752
253.67	4.736
254.33	4.719
255	4.713
255.67	4.719
256.33	4.74
257	4.785
257.67	4.847
258.33	4.913
259	4.934
259.67	4.938
260.33	4.926
261	4.835
261.67	4.748
262.33	4.657
263	4.545
263.67	4.471
264.33	4.38
265	4.281
265.67	4.236
266.33	4.182
267	4.128
267.67	4.099
268.33	4.083
269	4.087
269.73	4.098
270.33	4.124
270.88	4.155
271.29	4.172
271.67	4.178
271.99	4.173
272.33	4.149
273	4.066
273.67	3.996
274.33	3.921
274.67	3.88
275.19	3.834
275.82	3.787
277	3.736
277.67	3.715
278.33	3.694
279	3.678
279.67	3.669
280.33	3.669
281	3.674
281.67	3.694
282.33	3.707
283	3.711
283.67	3.698
284.33	3.678
285	3.636
285.67	3.62
286.33	3.624
287	3.64
287.67	3.665
288.33	3.69
289	3.707
289.67	3.727
290.33	3.752
291	3.769
291.67	3.777
292.33	3.781
293	3.789
293.67	3.806
294.33	3.826
295	3.843
295.67	3.86
296.33	3.868
297	3.884
297.67	3.905
298.33	3.921
299	3.942
299.67	3.963
300.33	3.988
301	4.004
301.67	4.029
302.33	4.058
303	4.091
303.67	4.112
304.2	4.124
305	4.128
305.67	4.132
306.33	4.132
307	4.132
307.67	4.132
308.33	4.136
309	4.14
309.67	4.14
310.33	4.145
311.03	4.15
311.67	4.161
312.42	4.174
313	4.186
313.67	4.207
314.33	4.223
315	4.244
315.67	4.269
316.21	4.29
317	4.306
317.67	4.31
318.33	4.31
319	4.306
319.73	4.292
320.33	4.269
321	4.24
321.67	4.211
322.33	4.178
323	4.14
323.67	4.107
324.33	4.074
325	4.033
325.67	4
326.33	3.975
327	3.963
327.67	3.946
328.33	3.934
329	3.917
329.65	3.913
330.33	3.913
331.05	3.913
331.67	3.917
332.33	3.93
333	3.93
333.67	3.917
334.33	3.888
335	3.851
335.67	3.81
336.33	3.773
337	3.736
337.67	3.69
338.33	3.653
339	3.612
339.67	3.587
340.33	3.566
341	3.545
341.49	3.533
342.26	3.512
343	3.496
343.67	3.479
344.33	3.475
345.15	3.484
345.67	3.508
346.33	3.537
347	3.583
347.67	3.607
348.33	3.62
349	3.624
349.67	3.62
350.16	3.607
351	3.554
351.49	3.52
352.15	3.46
353	3.368
353.67	3.289
354.18	3.201
354.5	3.144
354.83	3.087
355.5	2.967
356.17	2.831
