Uv/Vis Spectrum: 2,3-Benzofluorene
Formula: C17H12
CAS: 243-17-4
Melting point: 210
Boiling point: 401
Instrument: n.i.g.
Origin: INSTITUTE OF ENERGY PROBLEMS OF CHEMICAL PHYSICS, RAS
Wavelength (nm)	Logarithm epsilon
226.527	4.29578
226.553	4.27885
227.071	4.29586
227.106	4.27284
227.114	4.26742
227.675	4.30137
227.735	4.2621
227.744	4.256
228.296	4.25067
228.314	4.23916
228.858	4.23924
228.866	4.23382
230.04	4.22248
230.056	4.21165
232.336	4.18896
236.91	4.17881
238.61	4.17906
239.146	4.18456
240.303	4.18473
244.691	4.25311
244.708	4.2416
245.295	4.25862
245.303	4.25321
245.822	4.27021
245.839	4.2587
247.489	4.29281
248.007	4.30982
248.024	4.29899
248.534	4.32141
248.542	4.316
249.113	4.34385
249.146	4.3215
249.64	4.35544
249.648	4.35002
250.158	4.37245
250.176	4.36094
250.72	4.40639
250.761	4.37863
251.178	4.46335
251.213	4.44033
251.229	4.4295
251.255	4.41257
251.637	4.51963
251.646	4.51421
251.697	4.48036
251.714	4.46885
251.765	4.43499
252.224	4.53665
252.242	4.52514
252.267	4.50821
252.301	4.48587
252.632	4.62746
252.675	4.59902
252.717	4.57058
252.76	4.54215
253.168	4.63296
253.228	4.59301
253.254	4.57608
253.772	4.63847
253.78	4.63305
254.273	4.66699
254.316	4.63855
254.86	4.63863
256.033	4.62797
256.577	4.62805
256.612	4.60503
257.232	4.5997
257.25	4.58819
257.794	4.58827
258.346	4.58294
258.959	4.58303
259.503	4.58311
260.031	4.59403
260.039	4.58861
260.565	4.64558
260.634	4.60021
261.068	4.67342
261.101	4.65107
261.577	4.69652
261.603	4.67959
262.173	4.70744
262.181	4.70203
262.675	4.73596
262.708	4.71362
263.201	4.74756
263.211	4.74146
263.805	4.75306
264.894	4.75323
265.498	4.75873
267.794	4.72522
267.81	4.71438
267.861	4.68053
267.904	4.65209
268.364	4.70837
268.397	4.68602
268.457	4.64675
268.67	4.50524
269.222	4.49991
269.24	4.4884
269.86	4.48307
269.997	4.39234
270.549	4.38701
270.617	4.34164
270.677	4.30237
270.762	4.24549
270.822	4.20622
270.839	4.19471
271.17	4.3363
271.213	4.30787
271.315	4.24016
271.358	4.21172
271.391	4.18938
271.417	4.17245
272.037	4.16712
272.08	4.13868
272.675	4.10491
272.71	4.08189
273.186	4.12734
273.262	4.07656
273.296	4.05421
275.057	4.01452
275.677	4.00919
275.695	3.99768
276.239	3.99776
276.247	3.99235
276.791	3.99243
276.799	3.98701
277.412	3.9871
281.357	3.98769
281.893	3.99319
283.05	3.99336
283.586	3.99886
284.189	4.00504
284.198	3.99895
284.707	4.02205
284.733	4.00513
285.244	4.02755
285.252	4.02213
285.848	4.03306
285.856	4.02764
286.383	4.03923
286.392	4.03314
286.901	4.05624
286.919	4.04473
289.707	4.09052
290.813	4.07918
291.476	4.04541
292.029	4.04008
292.08	4.00622
293.79	4.00038
295.49	4.00064
298.841	4.035
298.857	4.02417
300.516	4.05218
301.051	4.05836
301.663	4.05845
302.217	4.05244
303.373	4.05261
306.885	3.93461
307.505	3.92929
307.514	3.92387
308.058	3.92395
308.067	3.91786
308.611	3.91794
309.223	3.91803
309.75	3.92962
309.758	3.92421
310.261	3.95205
310.286	3.93512
310.864	3.95823
310.873	3.95214
311.919	3.98074
311.936	3.96923
312.523	3.98625
313.058	3.99242
313.067	3.98633
313.586	4.00334
313.594	3.99792
314.18	4.01494
314.198	4.00343
314.717	4.02044
314.725	4.01502
315.252	4.02661
315.261	4.02052
318.653	4.02712
319.308	3.99878
319.325	3.98726
319.359	3.96492
319.385	3.94799
319.878	3.98193
319.895	3.97042
319.929	3.94807
319.937	3.94266
321.111	3.93132
321.273	3.82366
321.825	3.81833
321.987	3.71135
322.54	3.70533
322.607	3.66065
323.229	3.65464
323.45	3.50772
323.527	3.45693
324.003	3.50238
324.046	3.47394
324.062	3.46311
324.079	3.4516
324.122	3.42316
324.674	3.41783
324.684	3.41173
325.304	3.40641
325.312	3.40099
325.866	3.39498
325.917	3.36112
326.01	3.29951
326.07	3.25956
326.078	3.25414
326.605	3.26573
326.63	3.24881
326.639	3.24271
327.184	3.24279
327.2	3.23196
328.348	3.23755
328.356	3.23213
328.884	3.24305
328.892	3.23763
330.041	3.24322
330.576	3.24939
331.188	3.24949
331.724	3.25499
332.276	3.24965
333.017	3.16443
333.433	3.24982
333.527	3.18753
333.57	3.15909
333.613	3.13065
334.088	3.1761
334.165	3.12532
334.208	3.09688
334.828	3.09156
334.871	3.06312
335.976	3.05245
336.588	3.05254
337.099	3.07496
337.132	3.05262
337.625	3.08656
337.635	3.08046
338.212	3.10357
338.229	3.09206
339.25	3.13759
339.284	3.11457
339.82	3.16544
339.854	3.1431
340.789	3.24483
340.815	3.2279
341.392	3.25101
343.042	3.28512
343.578	3.29062
344.122	3.2907
344.742	3.28537
344.752	3.27928
345.296	3.27936
345.304	3.27394
345.856	3.26861
345.865	3.26251
346.418	3.25718
347.099	3.2119
347.124	3.19498
347.668	3.19506
347.719	3.1612
348.306	3.13285
348.365	3.09358
348.986	3.08825
348.995	3.08216
349.539	3.08224
349.59	3.04838
349.701	2.97526
350.092	3.0769
350.135	3.04847
350.253	2.96992
350.339	2.91305
