Uv/Vis Spectrum: 1,1'-Biphenyl, 2,2'-dinitro-
Formula: C12H8N2O4
CAS: 2436-96-6
Melting point: 126
Boiling point: 305
Instrument: Beckman DU
Origin: INSTITUTE OF ENERGY PROBLEMS OF CHEMICAL PHYSICS, RAS
Wavelength (nm)	Logarithm epsilon
215.173	4.27876
215.548	4.28184
215.946	4.28111
216.002	4.28069
216.063	4.28024
216.132	4.27977
217.105	4.27234
217.356	4.2688
217.615	4.26519
217.878	4.26154
218.461	4.25431
218.627	4.25324
218.832	4.25035
219.252	4.24305
219.836	4.23541
220.027	4.23092
220.222	4.22636
220.426	4.22171
220.824	4.21368
221.015	4.2068
221.166	4.2028
221.23	4.19926
221.628	4.1908
221.688	4.18759
221.751	4.18436
221.823	4.1811
222.225	4.16892
222.359	4.16519
222.492	4.16138
222.626	4.15751
223.008	4.14578
223.065	4.14201
223.165	4.13924
223.221	4.13619
223.416	4.12637
223.606	4.12181
223.8	4.1172
224.002	4.11254
224.589	4.09825
224.722	4.09428
224.856	4.09027
224.989	4.08623
225.575	4.07103
225.765	4.06635
225.959	4.06156
226.161	4.05668
226.764	4.04345
226.883	4.03948
227.012	4.03542
227.144	4.03128
227.744	4.02045
227.995	4.01411
228.254	4.00761
228.517	4.00097
229.303	3.98936
229.396	3.98739
229.49	3.98537
229.584	3.98326
230.647	3.97203
231.061	3.96944
231.484	3.96675
231.911	3.96401
233.539	3.96324
234.044	3.96448
234.556	3.96573
235.073	3.96697
236.513	3.97152
237.122	3.97423
237.731	3.97685
238.339	3.97941
239.572	3.98993
240.235	3.99501
240.902	4.00004
241.578	4.00501
242.716	4.01724
243.962	4.03082
245.096	4.04504
245.958	4.05916
246.526	4.06571
246.782	4.07023
247.037	4.07468
247.292	4.07902
247.857	4.08933
248.249	4.09572
248.596	4.10056
248.805	4.10461
249.37	4.1136
249.721	4.11686
250.132	4.12147
250.8	4.12748
250.8	4.12748
251.396	4.13418
252.061	4.1405
253.367	4.15172
255.278	4.16502
255.462	4.166
255.651	4.16697
255.848	4.16788
256.896	4.17407
257.724	4.17846
258.197	4.18062
258.719	4.18242
260.249	4.1879
260.882	4.18904
261.524	4.19012
262.17	4.19118
264.075	4.19125
265.157	4.18996
265.984	4.18846
267.264	4.18544
268.509	4.18161
268.998	4.18
269.301	4.17847
269.681	4.17571
271.601	4.16167
272.148	4.15769
272.702	4.15366
273.261	4.14954
274.716	4.13821
275.225	4.13363
275.743	4.12896
276.265	4.1242
277.609	4.1123
278.383	4.10514
278.839	4.10004
279.366	4.09266
280.707	4.08331
281.1	4.07734
281.494	4.07128
281.888	4.06515
283.045	4.05361
283.531	4.04751
284.017	4.04128
284.503	4.03489
285.755	4.01855
286.172	4.01302
286.597	4.00741
287.026	4.00173
288.091	3.98736
288.671	3.97886
289.256	3.97011
289.848	3.96114
291.194	3.9408
291.611	3.93285
292.037	3.92472
292.467	3.91635
293.718	3.89699
294.228	3.88924
294.745	3.88136
295.267	3.87333
296.442	3.85526
296.89	3.84756
297.338	3.83963
297.786	3.83149
298.963	3.80907
299.411	3.80101
299.859	3.79268
300.307	3.78413
301.855	3.75433
302.304	3.74467
302.757	3.73473
303.218	3.72442
304.375	3.69874
304.86	3.68709
305.345	3.67505
305.83	3.66251
307.099	3.6309
307.546	3.61994
307.994	3.60862
308.441	3.59681
310.584	3.54101
311.032	3.52657
311.479	3.51162
311.927	3.49615
313.287	3.45181
313.958	3.43106
314.633	3.40914
315.317	3.38577
316.769	3.33147
317.863	3.30179
318.94	3.26974
319.86	3.18674
320.013	3.1909
320.174	3.1948
320.34	3.19821
320.34	3.19821
320.362	3.20894
320.393	3.21898
320.429	3.22859
320.429	3.22859
320.636	3.19831
320.904	3.19799
321.053	3.19514
321.211	3.18722
322.548	3.14285
322.957	3.1462
323.581	3.14197
324.955	3.12619
