Uv/Vis Spectrum: Dibenzoselenophene
Formula: C12H8Se
CAS: 244-95-1
Melting point: 76-78
Instrument: n.i.g.
Origin: INSTITUTE OF ENERGY PROBLEMS OF CHEMICAL PHYSICS, RAS
Wavelength (nm)	Logarithm epsilon
212.09	4.216
212.47	4.208
212.85	4.204
213.22	4.199
213.6	4.158
214.36	4.133
215.11	4.125
215.87	4.121
216.62	4.117
217.38	4.121
218.14	4.129
218.89	4.133
219.65	4.154
220.4	4.187
221.91	4.27
222.67	4.315
223.43	4.352
224.18	4.352
224.94	4.385
225.69	4.426
226.45	4.472
227.2	4.484
227.96	4.53
228.72	4.579
229.47	4.624
230.23	4.662
230.98	4.682
231.74	4.707
232.49	4.728
233.25	4.728
234.01	4.728
234.76	4.707
235.52	4.695
236.27	4.645
237.03	4.6
237.78	4.538
238.54	4.418
239.29	4.377
240.05	4.352
241.56	4.298
243.07	4.261
245.34	4.212
246.1	4.191
246.85	4.179
247.61	4.171
248.36	4.166
249.12	4.166
249.87	4.171
250.63	4.183
251.39	4.183
252.14	4.183
252.9	4.183
253.65	4.183
254.41	4.179
255.16	4.166
255.92	4.158
256.68	4.158
257.43	4.158
258.19	4.146
258.94	4.129
259.7	4.088
260.45	4.055
261.21	4.014
261.96	3.977
262.72	3.923
263.48	3.886
264.23	3.849
264.99	3.84
265.74	3.84
266.5	3.849
267.25	3.857
268.01	3.861
268.77	3.865
269.52	3.861
270.28	3.849
271.03	3.82
271.79	3.807
272.54	3.807
273.3	3.824
274.81	3.878
275.57	3.915
276.32	3.956
277.08	3.989
277.83	3.915
278.59	3.787
279.35	3.721
280.1	3.7
280.86	3.585
281.61	3.428
282.37	3.329
283.12	3.213
283.88	3.164
284.63	3.069
285.39	3.028
286.15	3.011
286.9	3.023
287.66	3.032
288.41	3.056
289.17	3.065
290.68	3.098
291.44	3.122
292.19	3.143
292.95	3.16
293.7	3.18
294.46	3.193
295.21	3.213
296.73	3.263
298.24	3.304
298.99	3.345
299.75	3.362
300.5	3.382
301.26	3.403
302.02	3.42
302.77	3.428
303.53	3.44
304.28	3.44
305.04	3.436
305.79	3.432
306.55	3.428
307.3	3.424
308.06	3.424
308.82	3.428
309.57	3.444
310.33	3.465
311.08	3.498
311.84	3.514
312.59	3.531
313.35	3.539
314.11	3.547
314.86	3.543
315.62	3.527
316.37	3.506
317.13	3.453
317.88	3.407
318.64	3.362
319.4	3.292
320.15	3.242
320.91	3.135
321.66	3.089
322.42	2.978
323.17	2.916
323.93	2.834
324.69	2.677
325.44	2.623
326.2	2.499
326.95	2.384
327.71	2.289
