Uv/Vis Spectrum: 9-Vinylanthracene
Formula: C16H12
CAS: 2444-68-0
Melting point: 64-65
Instrument: Unicam SP 500
Origin: INSTITUTE OF ENERGY PROBLEMS OF CHEMICAL PHYSICS, RAS
Wavelength (nm)	Logarithm epsilon
210.45	4.044
211.8	4.115
213.15	4.158
214.5	4.186
215.85	4.199
217.2	4.206
218.54	4.219
219.89	4.229
221.24	4.233
222.59	4.233
223.94	4.223
225.29	4.216
226.64	4.202
227.98	4.189
229.33	4.179
230.68	4.169
232.03	4.162
233.38	4.155
234.73	4.155
236.08	4.158
237.43	4.165
238.77	4.172
240.12	4.186
241.47	4.206
242.82	4.236
244.17	4.27
245.52	4.3
246.87	4.324
248.21	4.351
249.56	4.371
250.91	4.402
252.26	4.436
253.61	4.469
254.96	4.496
256.31	4.507
257.65	4.496
259	4.449
260.35	4.368
261.7	4.209
263.05	4.06
264.4	3.946
265.75	3.871
267.1	3.804
268.44	3.75
269.79	3.706
271.14	3.665
272.49	3.628
273.84	3.587
275.19	3.554
276.54	3.52
277.88	3.489
279.23	3.459
280.58	3.435
281.93	3.408
283.28	3.388
284.63	3.364
285.98	3.347
287.33	3.327
288.67	3.31
290.02	3.293
291.37	3.28
292.72	3.266
294.07	3.259
295.42	3.246
296.77	3.243
298.11	3.243
299.46	3.239
300.81	3.232
302.16	3.232
303.51	3.229
304.86	3.232
306.21	3.236
307.56	3.246
308.9	3.263
310.25	3.266
311.6	3.28
312.95	3.297
314.3	3.31
315.65	3.33
317	3.344
318.34	3.344
319.69	3.354
321.04	3.361
322.39	3.368
323.74	3.385
325.09	3.412
326.44	3.442
327.78	3.469
329.13	3.499
330.48	3.52
331.83	3.537
333.18	3.547
334.53	3.55
335.88	3.554
337.23	3.554
338.57	3.557
339.92	3.567
341.27	3.581
342.62	3.608
343.97	3.641
345.32	3.672
346.67	3.692
348.01	3.712
349.36	3.729
350.71	3.743
352.06	3.736
353.41	3.726
354.76	3.702
356.11	3.689
357.46	3.682
358.8	3.692
360.15	3.726
361.5	3.76
362.85	3.793
364.2	3.821
365.55	3.841
366.9	3.861
368.24	3.875
369.59	3.854
370.94	3.837
372.29	3.807
373.64	3.777
374.99	3.75
376.34	3.723
377.69	3.692
379.03	3.672
380.38	3.668
381.73	3.685
383.08	3.706
384.43	3.733
385.78	3.766
387.13	3.783
388.47	3.793
389.82	3.777
391.17	3.736
392.52	3.685
393.87	3.628
395.22	3.56
396.57	3.489
397.91	3.398
399.26	3.266
400.61	3.148
401.96	3.013
403.31	2.864
404.66	2.715
406.01	2.567
407.36	2.499
408.7	2.398
410.05	2.3
411.4	2.202
412.75	2.117
414.1	2.023
