Uv/Vis Spectrum: Bicyclo[4.4.1]undeca-1,3,5,7,9-pentaene
Formula: C11H10
CAS: 2443-46-1
Melting point: 28-29
Boiling point: 76-78
Instrument: Cary 14
Origin: INSTITUTE OF ENERGY PROBLEMS OF CHEMICAL PHYSICS, RAS
Wavelength (nm)	Logarithm epsilon
200.48	3.933
200.57	3.931
200.66	3.929
200.74	3.927
200.83	3.927
200.92	3.924
201	3.922
201.09	3.92
201.18	3.92
201.27	3.918
201.35	3.916
201.44	3.914
201.53	3.912
201.62	3.912
201.7	3.909
201.79	3.907
201.88	3.905
201.97	3.905
202.06	3.903
202.15	3.901
202.23	3.899
202.32	3.899
202.41	3.897
202.5	3.894
202.59	3.892
202.68	3.89
202.77	3.89
202.85	3.888
202.94	3.886
203.3	3.867
203.66	3.86
204.02	3.852
204.38	3.843
204.74	3.839
205.1	3.832
205.47	3.824
205.83	3.813
206.2	3.809
206.57	3.8
206.93	3.794
207.31	3.787
207.68	3.781
208.05	3.772
208.43	3.768
208.8	3.76
209.18	3.755
209.56	3.749
209.94	3.74
210.32	3.738
210.7	3.727
211.09	3.723
211.47	3.717
211.86	3.71
212.25	3.706
212.64	3.697
213.03	3.693
213.42	3.687
213.82	3.682
214.21	3.676
214.61	3.672
215.01	3.663
215.41	3.657
215.81	3.652
216.21	3.646
216.62	3.642
217.03	3.633
217.43	3.631
217.84	3.622
218.25	3.62
218.67	3.612
219.08	3.61
219.5	3.601
219.91	3.595
220.33	3.59
220.75	3.582
221.17	3.577
221.6	3.573
222.02	3.569
222.45	3.562
222.88	3.56
223.31	3.558
223.74	3.556
224.17	3.556
224.61	3.556
225.04	3.56
225.48	3.567
225.92	3.575
226.37	3.586
226.81	3.599
227.25	3.61
227.7	3.622
228.15	3.64
228.6	3.652
229.05	3.672
229.51	3.687
229.96	3.704
230.42	3.721
230.88	3.736
231.34	3.755
231.81	3.768
232.27	3.787
232.74	3.807
233.21	3.824
233.68	3.839
234.15	3.86
234.63	3.886
235.1	3.903
235.58	3.927
236.06	3.948
236.54	3.972
237.03	3.993
237.52	4.021
238	4.036
238.49	4.064
238.99	4.087
239.48	4.117
239.98	4.147
240.48	4.171
240.98	4.207
241.48	4.239
241.99	4.263
242.49	4.295
243	4.329
243.51	4.366
244.03	4.398
244.54	4.43
245.06	4.458
245.58	4.484
246.1	4.512
246.63	4.531
247.15	4.559
247.68	4.582
248.21	4.606
248.75	4.627
249.28	4.649
249.82	4.67
250.36	4.683
250.91	4.704
251.45	4.726
252	4.741
252.55	4.76
253.1	4.779
253.66	4.792
254.21	4.807
254.77	4.818
255.33	4.829
255.9	4.835
256.47	4.839
257.04	4.833
257.61	4.818
258.18	4.807
258.76	4.803
259.34	4.799
259.92	4.796
260.51	4.786
261.1	4.758
261.69	4.715
262.28	4.668
262.87	4.625
263.47	4.582
264.07	4.537
264.68	4.486
265.29	4.422
265.9	4.364
266.51	4.302
267.12	4.207
267.74	4.134
268.36	4.053
268.99	3.969
269.61	3.918
270.24	3.882
270.87	3.841
271.51	3.811
272.15	3.79
272.79	3.768
273.43	3.755
274.08	3.738
274.73	3.727
275.39	3.717
276.04	3.708
276.7	3.704
277.37	3.695
278.03	3.693
278.7	3.691
279.38	3.689
280.05	3.689
280.73	3.691
281.41	3.691
282.1	3.693
282.79	3.695
283.48	3.7
284.18	3.704
284.88	3.706
285.58	3.71
286.29	3.717
287	3.723
287.71	3.727
288.43	3.732
289.15	3.738
289.87	3.74
290.6	3.745
291.33	3.751
292.07	3.755
292.81	3.76
293.55	3.764
294.3	3.766
295.05	3.77
295.8	3.775
296.56	3.775
297.32	3.779
298.09	3.779
298.86	3.777
299.63	3.777
300.41	3.775
301.19	3.77
301.98	3.766
302.77	3.764
303.56	3.76
304.36	3.753
305.16	3.745
305.97	3.736
306.78	3.727
307.59	3.721
308.41	3.71
309.24	3.697
310.07	3.682
310.9	3.67
311.74	3.657
312.58	3.64
313.43	3.618
314.28	3.595
315.13	3.569
315.99	3.545
316.86	3.515
317.73	3.485
318.6	3.449
319.48	3.41
320.37	3.359
321.26	3.31
322.15	3.254
323.05	3.2
323.96	3.123
324.87	3.061
325.78	3.01
326.7	2.907
327.62	2.806
328.75	2.713
329.58	2.635
330.42	2.564
331.29	2.498
332.44	2.439
333.17	2.4
334.09	2.362
335.04	2.319
336.19	2.275
337.17	2.238
338.16	2.211
339.15	2.191
340.14	2.174
341.15	2.163
342.16	2.155
343.17	2.151
344.19	2.146
345.22	2.146
346.25	2.153
347.29	2.163
348.34	2.174
349.39	2.185
350.44	2.193
351.51	2.202
352.58	2.204
353.66	2.206
354.74	2.204
355.83	2.2
356.93	2.2
358.03	2.198
359.15	2.206
360.26	2.221
361.39	2.228
362.52	2.221
363.66	2.206
364.81	2.198
365.96	2.193
367.12	2.196
368.29	2.202
369.47	2.213
370.65	2.215
371.84	2.202
373.04	2.185
374.25	2.17
375.46	2.163
376.68	2.161
377.91	2.168
379.15	2.172
379.88	2.169
380.4	2.161
381.65	2.129
382.91	2.11
384.19	2.101
385.47	2.091
386.75	2.076
386.98	2.069
387.08	2.051
387.28	2.039
388.05	2.033
389.36	2.024
390.67	2.016
391.99	1.998
393.33	1.986
394.67	1.971
396.02	1.964
397.38	1.953
398.08	1.944
398.39	1.933
398.75	1.915
399.32	1.907
400.13	1.911
401.51	1.926
402.91	1.934
404.32	1.938
405.74	1.932
407.17	1.913
