Uv/Vis Spectrum: 5,6,7,8-tetrahydro-2,4-diphenyl-2H-1benzothiopyran
Formula: C21H20S
CAS: 24562-68-3
Melting point: 89-90.5
Instrument: SF-4A
Origin: INSTITUTE OF ENERGY PROBLEMS OF CHEMICAL PHYSICS, RAS
Wavelength (nm)	Logarithm epsilon
211.507	4.318
213.007	4.242
214.507	4.172
216.007	4.121
217.507	4.089
219.007	4.073
220.507	4.068
222.007	4.069
223.507	4.07
225.007	4.07
226.555	4.085
228.325	4.104
229.874	4.116
231.644	4.134
233.193	4.153
235.185	4.177
237.176	4.202
239.389	4.22
241.381	4.238
243.151	4.25
244.921	4.25
246.913	4.236
248.764	4.203
250.616	4.164
252.468	4.125
254.32	4.093
256.172	4.054
258.023	4.015
259.875	3.963
261.739	3.926
263.579	3.886
265.431	3.827
267.282	3.789
269.134	3.724
270.986	3.672
272.582	3.608
274.69	3.523
276.541	3.465
278.557	3.412
280.245	3.355
283.203	3.29
285.416	3.228
287.652	3.173
289.504	3.154
291.356	3.134
293.138	3.122
295.164	3.122
296.89	3.129
298.767	3.138
300.568	3.148
302.594	3.141
304.319	3.121
305.371	3.103
306.647	3.084
307.938	3.06
309.438	3.04
310.938	3.019
312.438	2.998
313.938	2.976
315.438	2.953
316.938	2.93
318.438	2.906
319.938	2.882
321.438	2.856
322.938	2.831
324.438	2.804
325.938	2.777
327.438	2.749
328.938	2.721
330.438	2.692
331.938	2.662
333.438	2.631
334.938	2.6
336.438	2.568
337.938	2.536
339.438	2.503
340.938	2.469
342.438	2.435
343.938	2.4
345.438	2.364
346.938	2.328
348.438	2.291
349.938	2.253
351.438	2.215
352.466	2.182
