Uv/Vis Spectrum: 1H-Imidazole, 1-acetyl-
Formula: C5H6N2O
CAS: 2466-76-4
Instrument: Cary 17
Origin: INSTITUTE OF ENERGY PROBLEMS OF CHEMICAL PHYSICS, RAS
Wavelength (nm)	Logarithm epsilon
204.69	2.901
204.79	2.919
204.88	2.936
204.97	2.953
205.07	2.969
205.25	2.985
205.44	3
205.53	3.015
205.72	3.029
206	3.041
206.28	3.053
206.56	3.066
206.74	3.078
206.93	3.09
207.21	3.102
207.49	3.114
207.68	3.125
207.95	3.136
208.23	3.147
208.51	3.157
208.79	3.167
209.07	3.177
209.26	3.187
209.54	3.196
209.82	3.206
210.1	3.215
210.38	3.223
210.66	3.231
210.94	3.239
211.31	3.247
211.59	3.254
211.87	3.262
212.24	3.269
212.61	3.276
212.89	3.284
213.27	3.291
213.55	3.298
213.92	3.304
214.29	3.311
214.57	3.318
214.94	3.324
215.22	3.33
215.69	3.337
215.97	3.343
216.25	3.349
216.72	3.354
217.09	3.36
217.37	3.366
217.83	3.372
218.3	3.377
218.67	3.382
219.14	3.388
219.51	3.393
219.98	3.399
220.44	3.404
221.28	3.404
221.94	3.401
222.4	3.396
222.87	3.391
223.15	3.386
223.52	3.381
223.89	3.375
224.17	3.369
224.36	3.362
224.64	3.357
224.92	3.351
225.29	3.345
225.66	3.339
226.13	3.333
226.6	3.327
227.15	3.323
227.62	3.317
228.27	3.313
229.11	3.311
229.95	3.311
230.79	3.312
231.44	3.316
232.09	3.32
232.75	3.324
233.4	3.327
234.05	3.332
234.7	3.337
235.36	3.34
236.01	3.345
236.66	3.349
237.31	3.352
237.97	3.356
238.62	3.359
239.36	3.363
240.02	3.367
240.76	3.369
241.41	3.373
242.16	3.375
243	3.377
243.84	3.378
244.68	3.378
245.51	3.376
246.35	3.374
247.1	3.371
247.75	3.367
248.31	3.363
248.87	3.359
249.52	3.354
249.99	3.349
250.55	3.345
251.11	3.34
251.57	3.333
252.13	3.328
252.6	3.322
252.97	3.316
253.44	3.31
253.81	3.304
254.18	3.297
254.56	3.29
254.93	3.283
255.3	3.276
255.67	3.269
255.95	3.262
256.42	3.255
256.79	3.248
257.07	3.24
257.35	3.233
257.63	3.225
257.91	3.217
258.28	3.209
258.56	3.201
258.84	3.192
259.12	3.184
259.49	3.175
259.87	3.166
260.15	3.157
260.43	3.148
260.8	3.138
261.08	3.129
261.45	3.119
261.73	3.109
262.1	3.098
262.48	3.088
262.76	3.077
263.13	3.066
263.6	3.056
263.88	3.044
264.16	3.032
264.43	3.019
264.81	3.007
265.18	2.993
265.46	2.98
265.93	2.968
266.21	2.953
266.58	2.938
266.95	2.923
267.42	2.907
267.88	2.89
268.26	2.873
268.63	2.855
269	2.836
269.47	2.817
269.84	2.796
270.21	2.774
270.68	2.752
271.05	2.728
271.52	2.706
271.89	2.679
272.36	2.654
272.82	2.624
273.29	2.596
273.75	2.565
274.22	2.528
274.69	2.492
275.15	2.454
275.81	2.424
276.46	2.385
277.2	2.349
277.95	2.327
278.69	2.286
279.44	2.241
