Uv/Vis Spectrum: [1]Benzothieno[3,2-b][1]benzothiophene
Formula: C14H8S2
CAS: 248-70-4
Melting point: 216-217
Instrument: unknown
Origin: INSTITUTE OF ENERGY PROBLEMS OF CHEMICAL PHYSICS, RAS
Wavelength (nm)	Logarithm epsilon
220.26	4.527
220.33	4.517
220.39	4.508
220.44	4.5
220.61	4.466
220.9	4.41
221.17	4.349
221.67	4.265
222.17	4.202
222.68	4.143
223.18	4.084
223.68	4.05
224.18	4.034
224.68	4.034
225.19	4.042
225.69	4.055
226.19	4.067
226.69	4.084
227.19	4.101
227.69	4.122
228.2	4.143
228.7	4.164
229.2	4.176
229.7	4.197
230.2	4.21
230.7	4.227
231.21	4.244
231.71	4.261
232.21	4.277
232.71	4.29
233.21	4.307
233.72	4.319
234.22	4.34
234.72	4.349
235.22	4.361
235.72	4.378
236.22	4.387
236.73	4.395
237.23	4.399
237.73	4.395
238.23	4.382
238.73	4.366
239.24	4.353
239.74	4.34
240.24	4.324
240.74	4.303
241.24	4.294
241.74	4.277
242.25	4.265
242.75	4.248
243.25	4.235
243.75	4.223
244.25	4.214
244.76	4.202
245.26	4.193
245.76	4.189
246.26	4.181
246.76	4.176
247.26	4.176
247.77	4.181
248.27	4.189
248.77	4.202
249.27	4.218
249.77	4.244
250.27	4.269
250.78	4.298
251.28	4.324
251.68	4.346
252.28	4.374
252.78	4.382
253.29	4.374
253.79	4.353
254.29	4.336
254.79	4.319
255.29	4.311
255.79	4.307
256.3	4.303
256.8	4.303
257.3	4.307
257.8	4.311
258.3	4.324
258.81	4.34
259.31	4.349
259.81	4.361
260.31	4.378
260.81	4.403
261.31	4.437
261.51	4.459
261.82	4.487
262.02	4.507
262.32	4.529
262.55	4.543
262.82	4.55
262.98	4.545
263.18	4.525
263.32	4.5
263.56	4.465
263.77	4.432
263.82	4.403
264.32	4.361
264.83	4.307
265.33	4.261
265.83	4.21
266.33	4.164
266.83	4.122
267.34	4.076
267.84	4.034
268.34	3.996
268.84	3.95
269.34	3.924
269.71	3.914
270.35	3.903
270.85	3.899
271.35	3.899
271.85	3.899
272.35	3.903
272.86	3.908
273.33	3.912
273.86	3.918
274.36	3.924
274.86	3.932
275.36	3.941
275.87	3.953
276.37	3.962
276.87	3.975
277.36	3.989
277.87	4
278.38	4.013
278.84	4.024
279.37	4.034
279.88	4.042
280.38	4.046
280.88	4.05
281.47	4.053
281.82	4.055
282.38	4.057
282.89	4.059
283.39	4.06
283.89	4.063
284.4	4.067
284.88	4.074
285.31	4.08
285.9	4.088
286.45	4.097
286.91	4.105
287.41	4.116
287.89	4.128
288.41	4.143
288.91	4.155
289.41	4.168
289.92	4.185
290.42	4.206
290.92	4.227
291.42	4.252
291.92	4.286
292.43	4.307
292.93	4.324
293.43	4.332
293.93	4.336
294.43	4.336
294.93	4.336
295.38	4.331
295.94	4.328
296.44	4.328
296.94	4.328
297.44	4.328
297.95	4.328
298.4	4.329
298.95	4.332
299.45	4.336
300.05	4.34
300.45	4.345
300.96	4.353
301.46	4.361
301.96	4.378
302.46	4.395
302.96	4.42
303.46	4.445
303.97	4.475
304.47	4.479
304.97	4.471
305.47	4.433
305.97	4.403
306.48	4.37
306.98	4.345
307.48	4.311
307.98	4.286
308.48	4.261
308.98	4.227
309.49	4.202
309.99	4.168
310.49	4.147
310.99	4.113
311.49	4.097
312	4.088
312.5	4.076
313	4.067
313.5	4.063
314	4.055
314.5	4.055
315.01	4.05
315.51	4.05
316.01	4.046
316.51	4.042
317.01	4.042
317.51	4.029
318.02	4.025
318.52	4.008
319.02	4
319.52	3.987
320.02	3.975
320.53	3.962
321.03	3.945
321.53	3.937
321.95	3.929
322.52	3.922
323.03	3.916
323.61	3.909
324.04	3.903
324.51	3.9
324.94	3.895
325.54	3.891
326.03	3.888
326.55	3.887
327.06	3.884
327.56	3.883
328.05	3.882
328.55	3.881
329.06	3.878
329.58	3.874
330.01	3.87
330.58	3.865
331.08	3.86
331.57	3.853
332.07	3.845
332.47	3.838
333.07	3.828
333.5	3.82
334.07	3.807
334.49	3.801
335.08	3.798
335.58	3.798
336.15	3.8
336.58	3.807
337.08	3.824
337.59	3.845
338.09	3.87
338.59	3.903
339.09	3.941
339.67	3.977
340.1	4.008
340.59	4.057
341.1	4.101
341.37	4.122
341.6	4.134
341.83	4.139
342.1	4.13
342.29	4.078
342.55	4.011
342.86	3.933
343.22	3.858
343.58	3.767
344.1	3.67
344.61	3.576
345.11	3.517
345.62	3.45
346.12	3.391
346.62	3.328
347.12	3.273
347.62	3.227
348.12	3.185
348.63	3.147
349.13	3.105
349.63	3.067
350.13	3.038
350.63	3.004
351.14	2.979
351.64	2.954
352.14	2.924
352.64	2.899
353.14	2.882
353.64	2.861
354.15	2.836
354.65	2.815
355.15	2.794
355.65	2.777
356.15	2.756
356.65	2.735
