Uv/Vis Spectrum: Benz[a]anthracene, 2-methyl-
Formula: C19H14
CAS: 2498-76-2
Melting point: 150
Instrument: Hilger Uvispek spectrophotometer
Origin: INSTITUTE OF ENERGY PROBLEMS OF CHEMICAL PHYSICS, RAS
Wavelength (nm)	Logarithm epsilon
240.22	4.623
240.64	4.613
240.95	4.6
241.31	4.582
241.57	4.566
241.93	4.54
242.29	4.519
242.75	4.491
243.27	4.461
243.7	4.439
243.92	4.43
244.14	4.42
244.65	4.404
245.42	4.383
246.04	4.369
247.07	4.346
248.25	4.325
249.14	4.316
249.8	4.316
250.45	4.326
251.1	4.335
251.65	4.344
252.41	4.354
253.06	4.364
253.71	4.378
254.33	4.39
255.02	4.406
255.56	4.419
256.33	4.434
256.98	4.448
257.63	4.467
258.29	4.481
258.77	4.497
259.54	4.514
260.2	4.521
260.9	4.524
261.55	4.524
262.2	4.524
262.86	4.524
263.51	4.524
264.12	4.527
264.78	4.535
265.47	4.538
266.11	4.535
266.78	4.529
267.28	4.519
268.08	4.5
268.73	4.491
269.39	4.477
270.04	4.463
270.69	4.458
271.2	4.464
271.97	4.483
272.65	4.505
273.31	4.524
273.96	4.543
274.61	4.562
275.27	4.58
275.92	4.593
276.57	4.599
277.26	4.594
277.88	4.58
278.6	4.561
279.21	4.546
279.84	4.543
280.49	4.552
281.14	4.571
281.8	4.595
282.45	4.623
283.1	4.665
283.76	4.703
284.41	4.741
285.06	4.797
285.71	4.83
285.97	4.848
286.23	4.855
286.64	4.851
287.02	4.83
287.67	4.802
288.33	4.76
288.98	4.708
289.63	4.684
290.29	4.67
290.61	4.668
290.94	4.67
291.59	4.689
292.24	4.712
292.9	4.741
293.75	4.78
294.2	4.807
294.93	4.846
295.51	4.877
295.86	4.891
296.22	4.897
296.78	4.894
297.47	4.863
298.12	4.797
298.78	4.698
299.43	4.595
300.08	4.477
300.73	4.373
301.39	4.269
302.04	4.17
302.69	4.062
303.35	3.977
304	3.935
304.65	3.894
305.31	3.888
305.96	3.892
306.61	3.902
307.27	3.911
307.74	3.915
308.05	3.913
308.31	3.905
308.57	3.883
309.22	3.793
309.88	3.723
310.57	3.657
311.03	3.614
311.84	3.576
312.42	3.565
313.14	3.562
313.8	3.567
314.45	3.576
315.1	3.586
315.72	3.596
316.41	3.609
317	3.622
317.71	3.633
318.37	3.642
319.02	3.647
319.67	3.652
320.33	3.652
320.98	3.652
321.63	3.657
322.29	3.666
322.92	3.672
323.59	3.675
324.24	3.675
324.9	3.675
325.55	3.675
326.2	3.68
326.86	3.685
327.51	3.694
328.16	3.704
328.82	3.718
329.49	3.733
330.12	3.746
330.78	3.76
331.4	3.768
332.08	3.77
332.73	3.765
333.46	3.768
334.07	3.777
334.69	3.779
335.35	3.779
336	3.779
336.6	3.786
337.31	3.789
337.96	3.789
338.61	3.784
339.27	3.779
339.92	3.779
340.61	3.781
341.22	3.784
341.88	3.789
342.41	3.795
343.18	3.807
343.84	3.822
344.49	3.84
345.14	3.859
345.71	3.879
346.45	3.888
347.1	3.883
347.76	3.869
348.41	3.84
349.06	3.798
349.71	3.779
350.37	3.774
351.02	3.774
351.67	3.779
352.04	3.777
352.33	3.77
352.98	3.746
353.63	3.718
354.29	3.694
354.94	3.675
355.59	3.666
356.26	3.664
356.9	3.666
357.6	3.669
358.21	3.676
358.86	3.69
359.51	3.704
360.17	3.72
360.63	3.726
361.1	3.72
361.47	3.708
362.12	3.666
362.78	3.6
363.05	3.573
364.08	3.515
364.73	3.487
365.39	3.463
366.04	3.454
366.71	3.456
367.17	3.465
367.58	3.477
368	3.482
368.65	3.473
369.31	3.44
369.96	3.345
370.61	3.279
371.27	3.218
371.92	3.138
372.57	3.072
373.22	2.987
373.88	2.893
374.53	2.841
375.18	2.789
375.84	2.756
376.49	2.747
377.14	2.752
377.5	2.768
377.86	2.776
378.33	2.772
378.64	2.758
379.1	2.719
379.76	2.671
380.41	2.61
380.64	2.59
381.71	2.521
382.37	2.506
383.02	2.511
383.67	2.539
384.33	2.596
384.98	2.667
385.63	2.775
386.29	2.884
386.94	2.992
387.59	3.091
387.74	3.102
387.95	3.107
388.31	3.105
388.56	3.096
388.9	3.058
389.55	2.978
390.2	2.898
390.78	2.836
391.51	2.719
392.16	2.601
392.82	2.53
393.47	2.445
