Uv/Vis Spectrum: 4-[(4-Methylphenyl)azo]phenol
Formula: C13H12N2O
CAS: 2497-33-8
Instrument: Unicam SP 8000
Origin: INSTITUTE OF ENERGY PROBLEMS OF CHEMICAL PHYSICS, RAS
Wavelength (nm)	Logarithm epsilon
226.974	3.874
227.237	3.881
228.237	3.911
229.237	3.935
230.237	3.955
231.237	3.972
232.237	3.988
233.237	4.003
234.237	4.018
235.237	4.034
236.237	4.05
237.237	4.065
238.237	4.081
239.237	4.094
240.237	4.105
241.237	4.112
242.237	4.115
243.237	4.112
244.237	4.104
245.237	4.089
246.237	4.069
247.237	4.046
248.237	4.022
248.787	4.008
249.787	3.985
250.787	3.968
251.787	3.953
252.787	3.936
253.787	3.916
254.787	3.891
255.787	3.859
256.787	3.819
257.787	3.771
258.787	3.717
259.787	3.657
260.787	3.594
261.787	3.531
262.787	3.472
263.949	3.428
264.787	3.383
265.607	3.361
266.607	3.313
267.607	3.266
268.607	3.223
269.607	3.187
270.607	3.159
271.607	3.14
272.607	3.132
273.607	3.133
274.607	3.143
275.607	3.161
276.607	3.184
277.697	3.214
278.697	3.243
279.697	3.27
280.697	3.296
281.697	3.321
282.697	3.346
283.697	3.37
284.697	3.394
285.697	3.419
286.697	3.445
287.697	3.471
288.697	3.497
289.697	3.524
290.697	3.552
291.697	3.58
292.697	3.608
293.697	3.636
294.697	3.665
295.697	3.693
296.697	3.721
297.697	3.749
298.697	3.776
299.697	3.802
300.697	3.827
301.697	3.851
302.697	3.874
303.697	3.896
304.697	3.916
305.697	3.936
306.697	3.954
307.697	3.971
308.697	3.988
309.697	4.004
310.697	4.02
311.697	4.036
312.697	4.053
313.697	4.072
313.964	4.074
314.964	4.095
315.964	4.116
316.964	4.136
317.964	4.156
318.964	4.175
319.964	4.193
320.964	4.211
321.964	4.228
322.964	4.245
323.964	4.261
324.964	4.276
325.964	4.291
326.964	4.305
327.964	4.318
328.964	4.331
329.964	4.344
330.964	4.356
331.964	4.369
332.964	4.381
333.964	4.394
334.964	4.407
336.04	4.423
337.04	4.437
338.04	4.449
339.04	4.46
340.04	4.47
341.04	4.479
342.04	4.486
343.04	4.493
344.04	4.499
345.04	4.504
346.04	4.509
347.04	4.512
348.04	4.514
349.04	4.516
350.04	4.517
351.04	4.517
352.04	4.517
353.04	4.515
354.04	4.513
355.04	4.511
356.04	4.507
357.04	4.503
358.04	4.498
359.04	4.492
360.04	4.486
361.04	4.478
362.04	4.47
363.04	4.461
364.04	4.452
364.693	4.445
365.424	4.435
366.424	4.419
367.424	4.403
368.424	4.389
369.424	4.375
370.424	4.361
371.424	4.347
372.424	4.333
373.424	4.318
374.424	4.303
375.424	4.287
376.424	4.27
377.424	4.252
378.424	4.233
379.424	4.213
380.424	4.192
381.424	4.17
382.424	4.146
383.424	4.122
384.424	4.096
385.424	4.069
386.424	4.041
387.424	4.013
388.424	3.983
389.424	3.953
390.424	3.922
391.424	3.891
392.424	3.86
393.424	3.829
394.424	3.797
395.424	3.766
396.424	3.735
397.424	3.704
398.424	3.674
399.424	3.645
400.424	3.616
401.424	3.589
402.424	3.562
403.424	3.536
404.424	3.512
405.424	3.488
406.424	3.465
406.999	3.453
407.999	3.429
408.999	3.405
409.999	3.382
410.999	3.359
411.999	3.336
412.999	3.315
413.999	3.294
414.999	3.273
415.999	3.254
416.999	3.235
417.999	3.218
418.999	3.201
419.999	3.184
420.999	3.168
421.999	3.153
422.999	3.138
424.082	3.128
