Uv/Vis Spectrum: 4-Nitro-4'-(N,N-dimethylamino)-azobenzene
Formula: C14H14N4O2
CAS: 2491-74-9
Melting point: 229.5
Instrument: Cary 14
Origin: INSTITUTE OF ENERGY PROBLEMS OF CHEMICAL PHYSICS, RAS
Wavelength (nm)	Logarithm epsilon
209.41	4.163
210.31	4.138
211.22	4.113
212.13	4.103
213.06	4.083
213.99	4.058
214.93	4.037
215.87	4.022
217.79	3.982
220.74	3.947
221.74	3.926
222.75	3.921
225.83	3.906
226.87	3.906
229	3.916
230.07	3.916
231.16	3.926
232.25	3.926
233.36	3.921
235.61	3.921
236.75	3.921
237.9	3.926
240.23	3.906
241.41	3.896
243.82	3.896
245.04	3.891
246.27	3.891
248.77	3.881
252.62	3.896
253.93	3.901
257.94	3.926
259.31	3.942
263.49	3.952
264.92	3.967
266.36	3.977
267.82	3.997
270.78	4.012
272.28	4.017
273.81	4.032
278.48	4.063
280.07	4.063
281.68	4.068
284.96	4.063
286.63	4.047
288.31	4.047
295.27	3.992
298.87	3.952
300.71	3.926
302.56	3.911
304.45	3.886
306.35	3.866
316.24	3.78
318.3	3.755
320.38	3.73
322.49	3.664
324.63	3.609
326.79	3.579
328.99	3.513
331.21	3.432
333.47	3.377
335.75	3.331
338.07	3.281
340.42	3.256
342.81	3.221
350.16	3.16
352.68	3.165
355.24	3.185
357.83	3.21
360.47	3.241
363.14	3.301
365.85	3.362
368.61	3.402
371.4	3.473
374.24	3.548
377.12	3.604
380.05	3.664
383.02	3.75
386.04	3.826
389.11	3.896
392.22	3.957
395.39	3.987
398.61	4.052
401.88	4.098
405.21	4.158
408.59	4.184
412.02	4.209
415.52	4.239
419.08	4.305
422.69	4.325
426.37	4.34
430.12	4.39
433.93	4.41
437.81	4.426
441.76	4.441
445.78	4.461
454.04	4.471
458.29	4.476
462.62	4.486
467.03	4.481
476.12	4.461
480.79	4.451
485.56	4.436
490.42	4.431
491.4	4.426
492.39	4.421
494.38	4.41
495.38	4.405
496.38	4.4
497.39	4.395
498.4	4.385
499.42	4.38
500.44	4.375
502.5	4.345
504.57	4.335
506.65	4.32
508.76	4.249
510.88	4.244
513.02	4.184
515.18	4.179
517.36	4.103
519.55	4.073
521.77	4.032
524	3.967
526.25	3.921
528.53	3.846
530.82	3.816
533.13	3.77
535.46	3.735
537.81	3.654
540.19	3.589
542.58	3.543
545	3.503
547.43	3.392
549.89	3.352
552.37	3.306
554.88	3.175
557.4	3.165
559.95	3.079
562.52	2.989
565.12	2.938
567.74	2.817
570.39	2.666
573.06	2.585
575.75	2.489
578.47	2.414
581.22	2.333
583.99	2.252
586.79	2.106
589.61	2
592.47	1.93
595.35	1.859
598.26	1.743
601.19	1.622
604.16	1.547
607.16	1.436
610.18	1.355
613.24	1.279
616.33	1.088
619.44	0.987
622.59	0.886
625.78	0.775
628.99	0.609
632.24	0.508
633.88	0.447
635.52	0.442
637.18	0.437
638.84	0.432
