Uv/Vis Spectrum: Benz(a)anthracene-7,12-dione
Formula: C18H10O2
CAS: 2498-66-0
Melting point: 170.5
Instrument: n.i.g.
Origin: INSTITUTE OF ENERGY PROBLEMS OF CHEMICAL PHYSICS, RAS
Wavelength (nm)	Logarithm epsilon
210.75	4.795
211.32	4.807
212.02	4.816
212.72	4.815
213.32	4.809
214.62	4.788
215.95	4.753
217.29	4.682
218.47	4.642
220.03	4.611
221.4	4.584
222.87	4.559
224.34	4.535
225.69	4.52
226.29	4.515
227.16	4.513
227.86	4.517
228.64	4.527
230.14	4.534
231.67	4.534
233.21	4.527
236.36	4.52
237.97	4.52
239.59	4.527
241.07	4.534
242.15	4.543
242.92	4.548
243.42	4.548
244.01	4.543
245.08	4.531
246.34	4.527
248.08	4.527
249.78	4.521
250.76	4.504
251.65	4.478
252.52	4.445
253.47	4.407
255.26	4.354
257.2	4.315
258.06	4.31
259.1	4.315
261.03	4.343
262.99	4.379
264.98	4.421
266.94	4.468
269.06	4.513
271.14	4.569
273.26	4.619
275.41	4.682
277.59	4.725
279.81	4.767
282.06	4.788
284.36	4.788
286.61	4.753
289.05	4.654
291.46	4.513
293.52	4.335
295.01	4.18
296.39	4.061
298.92	3.899
301.5	3.772
304.12	3.659
306.74	3.623
309.49	3.602
312.25	3.602
315.06	3.623
317.93	3.652
321.17	3.689
324.03	3.713
326.83	3.729
329.91	3.736
333.05	3.736
336.25	3.722
339.51	3.701
342.83	3.687
346.22	3.673
353.21	3.687
356.81	3.68
360.48	3.68
364.23	3.659
367.88	3.629
371.7	3.618
376.22	3.615
380.05	3.63
384.22	3.652
388.49	3.645
392.85	3.623
397.3	3.595
401.86	3.553
406.37	3.488
411.31	3.376
416.2	3.221
421.2	3.073
426.33	2.896
431.59	2.734
436.66	2.565
441.66	2.386
448.17	2.183
453.98	2.007
459.94	1.844
466.05	1.687
472.35	1.505
478.81	1.336
485.6	1.156
489.86	1.059
495.44	0.962
