Uv/Vis Spectrum: Thieno[3,2-b]thiophene
Formula: C6H4S2
CAS: 251-41-2
Instrument: unknown
Origin: INSTITUTE OF ENERGY PROBLEMS OF CHEMICAL PHYSICS, RAS
Wavelength (nm)	Logarithm epsilon
204.6	3.203
204.77	3.203
204.94	3.203
205.11	3.203
205.28	3.203
205.45	3.199
205.62	3.199
205.79	3.199
205.96	3.199
206.13	3.199
206.3	3.199
206.47	3.199
206.64	3.199
206.81	3.199
206.98	3.199
207.15	3.199
207.32	3.19
208	3.19
208.69	3.19
209.37	3.19
210.05	3.19
210.73	3.19
211.41	3.19
212.09	3.19
212.77	3.19
213.45	3.19
214.14	3.195
214.82	3.195
215.5	3.199
216.18	3.207
216.86	3.211
217.54	3.215
218.2	3.22
218.9	3.228
219.59	3.232
220.23	3.238
220.89	3.246
221.63	3.253
222.31	3.261
222.99	3.268
223.67	3.278
224.3	3.291
225.04	3.303
225.72	3.316
226.4	3.328
227.08	3.341
227.76	3.353
228.44	3.37
229.15	3.383
229.8	3.395
230.49	3.411
231.17	3.432
231.85	3.449
232.53	3.466
233.21	3.487
233.92	3.507
234.57	3.528
235.25	3.545
235.94	3.566
236.62	3.587
237.3	3.608
237.98	3.628
238.66	3.649
239.34	3.67
240.09	3.693
240.7	3.712
241.42	3.731
242.07	3.745
242.75	3.758
243.43	3.774
244.11	3.791
244.77	3.808
245.47	3.824
246.15	3.837
246.84	3.854
247.52	3.87
248.2	3.887
248.88	3.899
249.56	3.912
250.24	3.929
250.92	3.945
251.6	3.958
252.29	3.975
252.97	3.991
253.65	4.004
254.33	4.016
255.01	4.033
255.69	4.045
256.37	4.054
257.05	4.07
257.74	4.075
258.42	4.091
259.1	4.095
259.78	4.108
260.46	4.108
261.14	4.095
261.82	4.083
262.5	4.066
263.19	4.05
263.87	4.033
264.55	4.033
265.23	4.05
265.91	4.07
266.59	4.091
267.27	4.112
267.95	4.12
268.64	4.116
269.32	4.104
270	4.079
270.68	4.05
271.36	4.02
272.04	3.995
272.72	3.975
273.4	3.966
274.08	3.966
274.77	3.966
275.45	3.975
276.13	3.995
276.81	4.029
277.49	4.05
278.17	4.054
278.6	4.048
278.93	4.03
279.63	3.947
280.22	3.849
280.9	3.716
281.58	3.591
282.26	3.449
282.94	3.307
283.62	3.174
284.3	3.036
284.98	2.89
285.67	2.732
286.35	2.557
287.03	2.377
287.71	2.215
288.39	2.056
289.07	1.873
289.47	1.78
289.81	1.697
290.25	1.61
290.78	1.504
291.41	1.43
293.16	1.243
293.84	1.164
294.52	1.084
295.2	1.005
295.88	0.943
296.57	0.88
297.25	0.822
297.93	0.767
298.61	0.713
299.29	0.659
299.96	0.615
300.65	0.576
301.33	0.534
302.02	0.496
302.7	0.459
303.38	0.425
304.06	0.392
304.74	0.363
305.42	0.329
306.1	0.304
306.78	0.279
307.47	0.246
