Uv/Vis Spectrum: endo-1-(1,5-dimethylbicyclo[2.1.0]pent-5-yl)ethanone
Formula: C9H14O
CAS: 25162-28-1
Instrument: unknown
Origin: INSTITUTE OF ENERGY PROBLEMS OF CHEMICAL PHYSICS, RAS
Wavelength (nm)	Logarithm epsilon
224.459	2.42
225.459	2.372
226.459	2.334
227.459	2.298
228.459	2.254
229.459	2.201
230.459	2.135
231.459	2.058
232.459	1.975
233.459	1.894
234.459	1.826
235.459	1.771
236.245	1.721
237.245	1.671
238.245	1.623
239.245	1.58
240.245	1.54
241.245	1.505
242.245	1.475
243.245	1.449
244.245	1.428
245.245	1.41
246.245	1.397
247.245	1.387
248.245	1.379
249.245	1.374
250.245	1.372
251.245	1.371
252.245	1.372
253.245	1.374
254.245	1.378
255.245	1.384
256.245	1.392
257.245	1.401
258.245	1.412
259.245	1.425
260.245	1.439
261.245	1.455
262.245	1.472
263.245	1.49
264.245	1.507
265.245	1.524
266.245	1.539
266.384	1.541
267.384	1.549
268.384	1.563
269.384	1.582
270.384	1.603
271.384	1.625
272.384	1.648
273.384	1.671
274.384	1.692
275.384	1.713
276.384	1.732
277.384	1.751
278.384	1.768
279.384	1.784
280.384	1.8
281.384	1.815
282.384	1.829
283.384	1.843
284.384	1.856
285.384	1.868
286.384	1.879
286.478	1.88
287.478	1.891
288.478	1.9
289.478	1.906
290.478	1.912
291.478	1.917
292.478	1.921
293.478	1.926
294.478	1.93
295.478	1.935
296.478	1.939
297.478	1.943
298.478	1.947
299.478	1.95
300.478	1.953
301.478	1.954
302.478	1.954
303.478	1.954
304.478	1.951
305.478	1.947
306.478	1.941
307.478	1.933
308.478	1.924
309.478	1.912
310.478	1.899
311.478	1.884
312.478	1.868
312.56	1.87
313.56	1.849
314.56	1.827
315.56	1.805
316.56	1.782
317.56	1.76
318.56	1.738
319.56	1.717
320.56	1.697
321.56	1.678
322.56	1.658
323.56	1.638
324.56	1.617
325.56	1.595
326.56	1.57
327.56	1.543
328.56	1.514
329.56	1.482
330.56	1.448
331.56	1.412
332.56	1.375
333.56	1.339
334.56	1.306
335.56	1.277
336.56	1.256
337.56	1.243
338.56	1.239
339.56	1.241
340.56	1.246
341.56	1.248
