Uv/Vis Spectrum: Quinazoline
Formula: C8H6N2
CAS: 253-82-7
Melting point: 48
Boiling point: 241
Instrument: n.i.g.
Origin: INSTITUTE OF ENERGY PROBLEMS OF CHEMICAL PHYSICS, RAS
Wavelength (nm)	Logarithm epsilon
206.84	4.307
208.13	4.326
209.42	4.345
210.72	4.363
211.82	4.389
212.74	4.416
213.67	4.442
214.59	4.472
215.51	4.501
216.43	4.531
217.54	4.554
218.64	4.58
220.12	4.598
221.59	4.617
223.25	4.625
224.54	4.606
225.65	4.583
226.57	4.557
227.12	4.527
227.68	4.498
228.23	4.468
228.78	4.438
229.34	4.408
229.71	4.374
230.07	4.341
230.44	4.307
230.81	4.274
231.18	4.24
231.36	4.206
231.73	4.173
231.92	4.139
232.1	4.106
232.29	4.072
232.47	4.038
232.65	4.005
233.02	3.971
233.21	3.938
233.39	3.904
233.76	3.871
233.95	3.837
234.31	3.803
234.5	3.77
234.87	3.736
235.05	3.703
235.42	3.669
235.97	3.635
236.53	3.602
236.71	3.568
237.08	3.535
237.63	3.505
238.37	3.475
239.11	3.445
240.03	3.415
240.95	3.389
242.06	3.363
243.53	3.344
245.19	3.333
246.85	3.333
248.51	3.344
250.17	3.352
251.64	3.367
253.12	3.382
254.59	3.4
256.07	3.411
257.54	3.426
259.02	3.441
260.68	3.449
262.34	3.46
263.81	3.471
265.47	3.479
267.13	3.482
268.79	3.486
270.45	3.49
272.11	3.49
273.77	3.482
275.43	3.479
277.09	3.471
278.75	3.464
280.41	3.452
282.06	3.441
283.72	3.43
285.2	3.419
286.67	3.408
288.33	3.396
289.99	3.385
291.65	3.382
293.31	3.389
294.97	3.396
296.63	3.404
298.29	3.411
299.95	3.423
301.61	3.43
303.27	3.438
304.93	3.441
306.59	3.438
308.24	3.434
309.9	3.423
311.56	3.411
313.04	3.4
314.33	3.382
315.44	3.359
316.54	3.337
317.65	3.311
318.57	3.284
319.31	3.255
320.04	3.225
320.78	3.195
321.33	3.165
321.89	3.135
322.44	3.105
322.99	3.075
323.36	3.042
323.92	3.012
324.28	2.978
324.84	2.948
325.21	2.915
325.76	2.885
326.13	2.851
326.68	2.818
327.05	2.784
