Uv/Vis Spectrum: 4,5-dihydro-1,3-diphenyl-1H-pyrazole
Formula: C15H14N2
CAS: 2538-52-5
Melting point: 151
Instrument: Cary 15
Origin: INSTITUTE OF ENERGY PROBLEMS OF CHEMICAL PHYSICS, RAS
Wavelength (nm)	Logarithm epsilon
218.928	3.983
220.428	3.996
221.928	4.017
223.428	4.041
224.928	4.064
226.428	4.087
227.928	4.106
229.428	4.123
230.928	4.136
232.428	4.147
233.928	4.155
235.428	4.161
236.928	4.166
238.428	4.171
239.928	4.174
241.428	4.177
242.928	4.178
244.428	4.177
245.928	4.173
247.428	4.165
248.928	4.151
250.428	4.13
251.928	4.102
253.428	4.066
254.928	4.022
256.538	3.968
258.038	3.919
259.538	3.876
261.038	3.832
262.538	3.785
264.038	3.733
265.538	3.678
267.038	3.622
268.538	3.569
270.038	3.522
271.538	3.486
273.038	3.462
274.538	3.453
276.038	3.459
277.538	3.478
279.038	3.506
279.941	3.524
281.441	3.553
282.941	3.585
284.441	3.617
285.941	3.65
287.741	3.686
289.241	3.71
290.741	3.728
292.241	3.746
293.741	3.764
295.241	3.783
296.741	3.801
298.241	3.814
299.741	3.823
301.392	3.828
302.892	3.831
304.392	3.838
305.892	3.851
307.392	3.867
309.126	3.879
310.8	3.885
312.3	3.886
313.929	3.89
315.604	3.903
316.68	3.918
317.763	3.933
318.854	3.951
318.944	3.952
320.444	3.974
321.944	4
323.444	4.027
324.944	4.054
326.444	4.081
327.944	4.106
329.444	4.131
330.944	4.154
332.444	4.175
333.944	4.194
335.444	4.212
336.944	4.229
338.444	4.243
339.944	4.257
341.444	4.269
342.944	4.28
344.444	4.29
345.944	4.298
347.444	4.305
348.944	4.311
350.444	4.316
351.944	4.318
353.444	4.319
354.944	4.318
356.444	4.315
357.944	4.31
359.444	4.302
360.944	4.292
362.444	4.28
363.944	4.264
365.444	4.247
366.944	4.226
368.444	4.203
369.944	4.179
371.444	4.152
372.944	4.123
374.444	4.092
375.944	4.06
377.444	4.026
378.944	3.991
380.444	3.954
381.944	3.914
383.444	3.872
384.944	3.825
386.444	3.773
387.944	3.712
389.444	3.639
390.944	3.552
392.444	3.444
393.944	3.31
395.444	3.142
