Uv/Vis Spectrum: 3-Nitropyridine
Formula: C5H4N2O2
CAS: 2530-26-9
Instrument: Unicam SP 700
Origin: INSTITUTE OF ENERGY PROBLEMS OF CHEMICAL PHYSICS, RAS
Wavelength (nm)	Logarithm epsilon
204.21	4.026
205.06	4.018
205.92	4.013
206.8	4.001
207.67	3.976
208.56	3.942
209.45	3.914
210.35	3.877
211.26	3.838
212.18	3.803
213.1	3.744
214.03	3.704
214.97	3.682
215.92	3.66
216.88	3.645
217.84	3.635
218.82	3.63
219.8	3.63
220.79	3.63
221.79	3.635
222.8	3.642
223.82	3.652
224.85	3.665
225.89	3.675
226.94	3.694
227.99	3.707
229.06	3.712
230.14	3.727
231.23	3.736
232.32	3.749
233.43	3.761
234.55	3.773
235.68	3.781
236.82	3.788
237.97	3.791
239.14	3.793
240.31	3.796
241.5	3.798
242.7	3.798
243.91	3.796
245.13	3.788
246.36	3.781
247.61	3.773
248.87	3.759
250.14	3.739
251.43	3.727
252.72	3.712
254.04	3.692
255.36	3.682
256.7	3.667
258.06	3.652
259.42	3.638
260.81	3.63
262.2	3.623
263.62	3.62
265.04	3.62
266.49	3.618
267.95	3.618
269.42	3.61
270.91	3.603
272.42	3.593
273.95	3.578
275.49	3.568
277.05	3.554
278.63	3.519
280.22	3.482
281.84	3.445
283.47	3.413
286.79	3.301
288.48	3.25
290.2	3.183
291.93	3.089
293.68	3.02
295.45	2.933
297.25	2.881
299.06	2.837
302.77	2.748
304.65	2.723
306.56	2.703
308.49	2.691
310.45	2.679
312.43	2.664
314.44	2.652
316.47	2.637
318.53	2.622
320.62	2.61
322.74	2.6
323.8	2.592
324.34	2.59
324.88	2.587
325.42	2.585
325.96	2.582
326.5	2.58
327.05	2.575
327.6	2.572
328.15	2.57
328.7	2.568
332.04	2.538
334.31	2.518
337.19	2.498
339.53	2.479
341.31	2.456
344.31	2.437
345.53	2.414
347.37	2.392
348.6	2.37
350.48	2.348
351.74	2.325
353	2.303
354.28	2.281
354.92	2.259
