Uv/Vis Spectrum: 1,7-Naphthyridine
Formula: C8H6N2
CAS: 253-69-0
Melting point: 60-62
Instrument: n.i.g.
Origin: INSTITUTE OF ENERGY PROBLEMS OF CHEMICAL PHYSICS, RAS
Wavelength (nm)	Logarithm epsilon
243.52	3.835
243.88	3.814
244.24	3.785
244.55	3.758
244.96	3.73
245.31	3.701
245.67	3.683
245.95	3.665
246.25	3.638
246.55	3.6
246.96	3.545
247.46	3.502
247.82	3.493
248.18	3.486
248.48	3.483
248.9	3.482
249.62	3.481
250.69	3.482
251.36	3.485
252.1	3.493
252.84	3.501
253.2	3.505
253.56	3.51
253.89	3.514
254.29	3.517
254.75	3.52
255.36	3.525
255.89	3.531
256.29	3.535
256.61	3.538
256.96	3.541
257.32	3.545
257.68	3.547
258.26	3.55
259.03	3.554
260.16	3.561
261.3	3.566
262.52	3.57
262.88	3.571
263.24	3.573
263.6	3.574
263.96	3.576
264.31	3.577
264.67	3.579
265.03	3.58
265.39	3.582
265.92	3.583
266.85	3.585
267.54	3.585
268.44	3.585
269.33	3.585
269.69	3.585
270.05	3.585
270.41	3.584
270.8	3.584
271.29	3.582
271.66	3.581
272.38	3.578
273.99	3.567
274.35	3.563
274.71	3.556
275.07	3.55
275.43	3.544
275.74	3.537
276.15	3.526
276.5	3.52
276.86	3.513
277.22	3.507
277.54	3.501
277.95	3.492
278.3	3.484
278.66	3.477
279.01	3.469
279.37	3.462
279.84	3.454
280.44	3.442
280.99	3.429
281.34	3.421
281.7	3.414
282.06	3.409
282.42	3.402
282.78	3.393
283.14	3.387
283.47	3.383
283.85	3.378
284.21	3.373
284.57	3.37
284.93	3.364
285.29	3.355
285.65	3.345
286	3.334
286.33	3.323
286.72	3.312
287.05	3.301
287.44	3.289
287.78	3.279
288.16	3.268
288.51	3.258
288.87	3.249
289.24	3.241
289.55	3.234
289.98	3.225
290.26	3.221
290.61	3.218
290.95	3.214
291.38	3.21
291.74	3.208
292.12	3.209
292.46	3.21
292.82	3.213
293.52	3.218
294.41	3.227
295.25	3.235
296.23	3.246
297.14	3.256
297.49	3.261
297.86	3.266
298.21	3.271
298.65	3.278
298.97	3.284
299.27	3.288
299.63	3.292
299.99	3.297
300.35	3.302
300.7	3.307
301.05	3.311
301.44	3.316
301.8	3.321
302.11	3.324
302.5	3.328
302.85	3.331
303.22	3.335
303.57	3.339
303.93	3.341
304.29	3.343
304.65	3.345
305.01	3.346
305.34	3.346
305.72	3.346
306.08	3.347
306.44	3.347
306.81	3.346
307.25	3.344
307.57	3.341
307.85	3.337
308.21	3.33
308.64	3.316
308.95	3.307
309.31	3.298
309.67	3.293
310.03	3.293
310.38	3.282
310.74	3.277
311.1	3.277
311.46	3.276
311.82	3.274
312.18	3.274
312.54	3.274
312.89	3.274
313.25	3.276
313.61	3.279
313.97	3.281
314.33	3.283
314.69	3.286
315.04	3.291
315.4	3.293
315.76	3.298
316.12	3.302
317.2	3.309
317.55	3.308
317.91	3.308
318.27	3.308
318.63	3.308
318.99	3.308
319.35	3.305
319.71	3.294
320.06	3.27
320.42	3.204
320.78	3.062
321.05	2.989
321.5	2.941
321.86	2.918
322.22	2.893
322.57	2.869
322.93	2.852
323.71	2.815
325	2.759
325.98	2.718
326.35	2.703
326.71	2.688
327.06	2.674
327.41	2.664
327.83	2.651
328.39	2.636
328.98	2.62
329.39	2.607
329.78	2.594
330.1	2.586
330.46	2.576
330.82	2.565
331.18	2.553
331.54	2.542
331.9	2.53
332.34	2.514
332.74	2.497
333.02	2.488
333.33	2.482
333.69	2.476
334.04	2.469
334.44	2.461
334.82	2.453
335.14	2.445
335.48	2.436
335.82	2.43
336.16	2.425
336.56	2.421
336.91	2.415
337.29	2.408
337.62	2.4
337.99	2.392
338.34	2.385
338.69	2.376
339.06	2.368
339.39	2.359
