Uv/Vis Spectrum: Phthalazine
Formula: C8H6N2
CAS: 253-52-1
Melting point: 90.5
Boiling point: 316
Instrument: Cary Model 11
Origin: INSTITUTE OF ENERGY PROBLEMS OF CHEMICAL PHYSICS, RAS
Wavelength (nm)	Logarithm epsilon
211.26	4.425
212.06	4.433
212.47	4.433
212.87	4.44
219.71	4.496
220.91	4.503
222.12	4.519
224.53	4.551
226.94	4.598
228.15	4.614
230.56	4.669
232.98	4.708
236.6	4.732
240.21	4.764
241.42	4.748
242.63	4.724
243.83	4.716
247.45	4.653
248.66	4.63
251.07	4.559
252.28	4.488
253.49	4.417
254.69	4.291
255.9	4.109
257.1	4.046
258.31	3.96
259.52	3.873
260.72	3.77
261.93	3.692
263.14	3.613
264.34	3.573
265.55	3.518
266.76	3.487
267.96	3.455
269.17	3.432
270.38	3.439
271.58	3.432
273.99	3.424
275.2	3.432
276.41	3.439
277.61	3.447
278.82	3.455
280.03	3.463
281.23	3.471
282.44	3.479
283.65	3.479
284.85	3.495
286.06	3.495
288.47	3.51
289.68	3.518
290.88	3.526
293.3	3.542
294.5	3.55
296.92	3.558
298.12	3.573
300.54	3.597
301.74	3.589
302.95	3.589
304.16	3.597
305.36	3.605
306.57	3.613
308.98	3.629
310.19	3.629
312.6	3.621
313.81	3.605
315.01	3.597
316.22	3.589
317.43	3.589
318.63	3.589
319.84	3.581
321.05	3.573
322.25	3.558
323.46	3.55
324.66	3.542
325.87	3.526
327.08	3.51
328.28	3.502
329.49	3.487
330.7	3.471
331.9	3.463
333.11	3.439
334.32	3.424
335.52	3.408
336.73	3.384
337.94	3.368
339.14	3.337
340.35	3.321
341.55	3.282
342.76	3.25
343.97	3.242
345.17	3.258
346.38	3.258
347.59	3.258
348.79	3.274
350	3.258
351.21	3.227
352.41	3.219
353.62	3.211
354.83	3.203
356.03	3.179
356.94	3.162
357.72	3.138
358.45	3.124
359.03	3.129
360.05	3.154
361.22	3.174
362.06	3.179
362.67	3.168
363.35	3.148
364.52	3.104
365.68	3.03
366.89	2.896
368.1	2.762
369.3	2.588
370.51	2.454
371.72	2.336
372.88	2.238
373.95	2.151
375.34	2.068
376.54	2.021
377.75	1.958
378.95	1.918
380.16	1.871
381.37	1.832
382.57	1.768
383.78	1.729
384.99	1.69
386.19	1.634
387.4	1.587
388.61	1.54
389.81	1.5
391.02	1.437
392.23	1.398
393.43	1.359
394.64	1.288
395.84	1.233
397.05	1.177
398.26	1.13
399.46	1.059
400.67	0.988
401.88	0.941
403.08	0.878
404.29	0.831
405.5	0.783
406.7	0.72
407.91	0.681
409.12	0.626
410.32	0.578
