Uv/Vis Spectrum: Cinnoline
Formula: C8H6N2
CAS: 253-66-7
Melting point: 38
Boiling point: 114/ 0.3 mm
Instrument: Unicam SP 500
Origin: INSTITUTE OF ENERGY PROBLEMS OF CHEMICAL PHYSICS, RAS
Wavelength (nm)	Logarithm epsilon
200.83	4.267
201.04	4.267
201.25	4.267
201.45	4.263
201.66	4.263
201.87	4.263
202.08	4.263
202.29	4.259
202.49	4.259
202.7	4.259
202.91	4.255
203.12	4.255
203.32	4.255
203.53	4.255
203.74	4.251
203.95	4.251
204.16	4.251
204.36	4.247
204.57	4.247
204.78	4.247
204.99	4.247
205.19	4.251
205.82	4.255
206.44	4.259
207.06	4.271
207.69	4.284
208.31	4.32
208.93	4.341
209.56	4.361
210.18	4.394
210.8	4.414
211.43	4.435
212.05	4.455
212.67	4.48
213.3	4.5
213.92	4.52
214.54	4.541
215.17	4.561
215.79	4.582
216.41	4.602
217.04	4.618
217.66	4.635
218.28	4.651
218.91	4.655
219.53	4.655
220.15	4.655
220.78	4.659
221.4	4.651
222.02	4.639
222.65	4.618
223.27	4.594
223.89	4.561
224.52	4.524
225.14	4.496
225.76	4.467
226.39	4.39
227.01	4.329
227.63	4.263
228.25	4.141
228.88	4.018
229.5	3.896
230.12	3.773
230.75	3.651
231.37	3.561
231.99	3.508
232.62	3.48
233.24	3.439
233.86	3.394
234.49	3.349
235.11	3.316
235.73	3.28
236.36	3.247
236.98	3.214
237.6	3.194
238.23	3.161
238.85	3.141
239.47	3.116
240.1	3.1
240.72	3.088
241.34	3.076
241.97	3.067
242.59	3.059
243.21	3.059
243.84	3.055
244.46	3.051
245.08	3.051
245.71	3.051
246.33	3.051
246.95	3.055
247.58	3.059
248.2	3.067
248.82	3.076
249.45	3.08
250.07	3.084
250.69	3.092
251.32	3.096
251.94	3.112
252.56	3.116
253.19	3.124
253.81	3.137
254.43	3.141
255.06	3.145
255.68	3.157
256.3	3.173
256.93	3.182
257.55	3.194
258.17	3.202
258.8	3.214
259.42	3.222
260.04	3.239
260.66	3.247
261.29	3.259
261.91	3.271
262.53	3.284
263.16	3.3
263.78	3.312
264.4	3.324
265.03	3.333
265.65	3.345
266.27	3.357
266.9	3.365
267.52	3.373
268.14	3.386
268.77	3.39
269.39	3.398
270.01	3.406
270.64	3.41
271.26	3.414
271.88	3.422
272.51	3.422
273.13	3.427
273.75	3.431
274.38	3.431
275	3.431
275.62	3.435
276.25	3.439
276.87	3.443
277.49	3.443
278.12	3.443
278.74	3.447
279.36	3.443
279.99	3.443
280.61	3.443
281.23	3.443
281.86	3.443
282.48	3.443
283.1	3.439
283.73	3.439
284.35	3.435
284.97	3.431
285.6	3.431
286.22	3.427
286.84	3.427
287.47	3.422
288.09	3.414
288.71	3.406
289.34	3.402
289.96	3.394
290.58	3.39
291.2	3.373
291.83	3.365
292.45	3.365
293.07	3.361
293.7	3.357
294.32	3.353
294.94	3.353
295.57	3.353
296.19	3.353
296.81	3.361
297.44	3.365
298.06	3.365
298.68	3.369
299.31	3.373
299.93	3.386
300.55	3.402
301.18	3.406
301.8	3.41
302.42	3.414
303.05	3.422
303.67	3.431
304.29	3.443
304.92	3.451
305.54	3.455
306.16	3.459
306.79	3.467
307.41	3.471
308.03	3.476
308.66	3.488
309.28	3.492
309.9	3.492
310.53	3.5
311.15	3.508
311.77	3.508
312.4	3.508
313.02	3.508
313.64	3.508
314.27	3.508
314.89	3.508
315.51	3.5
316.14	3.492
316.76	3.488
317.38	3.484
318.01	3.471
318.63	3.463
319.25	3.451
319.88	3.447
320.5	3.435
321.12	3.422
321.75	3.41
322.37	3.398
322.99	3.39
323.61	3.373
324.24	3.369
324.86	3.353
325.48	3.341
326.11	3.32
326.73	3.312
327.35	3.304
327.98	3.292
328.6	3.28
329.22	3.267
329.85	3.251
330.47	3.235
331.09	3.218
331.72	3.206
332.34	3.19
332.96	3.169
333.59	3.153
334.21	3.129
334.83	3.108
335.46	3.088
336.08	3.051
336.7	3.022
337.33	2.998
337.95	2.998
