Uv/Vis Spectrum: Benzyltriethoxysilane
Formula: C13H22O3Si
CAS: 2549-99-7
Boiling point: 130/ 15 mm
Instrument: Spektromom 201
Origin: INSTITUTE OF ENERGY PROBLEMS OF CHEMICAL PHYSICS, RAS
Wavelength (nm)	Logarithm epsilon
204.21	4.216
204.44	4.181
205.06	4.134
205.9	4.1
206.74	4.072
207.58	4.055
208.43	4.052
209.27	4.052
210.11	4.055
210.96	4.069
211.8	4.083
212.64	4.083
213.48	4.083
214.33	4.076
215.17	4.069
216.01	4.069
216.85	4.055
217.7	4.052
218.54	4.038
219.38	4.021
220.22	4.004
221.07	3.973
221.91	3.943
222.75	3.905
223.6	3.854
224.44	3.793
225.28	3.721
226.12	3.608
227.05	3.482
227.81	3.377
228.68	3.231
229.48	3.077
230.34	2.923
231.18	2.742
232.02	2.575
232.87	2.425
233.71	2.278
234.55	2.142
235.39	2.04
236.24	1.992
237.08	1.971
237.92	1.965
238.76	1.971
239.61	1.978
240.45	1.992
241.29	2.009
242.13	2.026
243.16	2.046
243.89	2.063
244.71	2.086
245.52	2.111
246.35	2.135
247.19	2.169
248.03	2.2
248.88	2.224
249.72	2.251
250.56	2.275
251.4	2.302
252.25	2.323
253.09	2.34
253.93	2.357
254.78	2.377
255.62	2.394
256.46	2.411
257.02	2.431
257.37	2.441
257.64	2.449
257.81	2.452
257.98	2.456
258.15	2.456
258.31	2.459
258.48	2.462
258.65	2.462
258.82	2.466
258.99	2.469
259.33	2.469
259.83	2.483
260.34	2.486
260.76	2.485
261.35	2.486
261.85	2.486
262.34	2.491
262.87	2.497
263.37	2.503
263.88	2.517
264.38	2.524
264.89	2.541
265.39	2.555
265.9	2.561
266.34	2.556
266.91	2.517
267.42	2.452
267.83	2.407
268.39	2.363
268.98	2.315
269.57	2.285
270.19	2.278
270.75	2.283
271.13	2.31
271.48	2.347
272.02	2.414
272.34	2.451
272.58	2.473
272.75	2.48
272.94	2.468
273.15	2.434
273.77	2.288
274.25	2.188
274.69	2.097
275.6	1.952
277.02	1.702
277.53	1.61
278.03	1.528
278.54	1.443
279.04	1.361
279.55	1.279
280.06	1.197
280.56	1.132
281.07	1.085
281.57	1.044
282.08	0.999
282.58	0.965
283.09	0.931
283.6	0.9
284.1	0.877
284.61	0.849
285.11	0.825
285.62	0.802
286.12	0.784
286.63	0.767
