Uv/Vis Spectrum: Silane, diethoxydiphenyl-
Formula: C16H20O2Si
CAS: 2553-19-7
Instrument: Spektromom 201
Origin: INSTITUTE OF ENERGY PROBLEMS OF CHEMICAL PHYSICS, RAS
Wavelength (nm)	Logarithm epsilon
203.36	4.322
203.53	4.318
203.7	4.315
203.87	4.312
204.03	4.308
204.2	4.305
204.37	4.301
204.54	4.298
204.71	4.295
204.87	4.291
205.04	4.288
205.21	4.284
205.38	4.281
205.71	4.25
206.22	4.237
206.72	4.23
207.23	4.22
207.73	4.209
208.24	4.202
208.74	4.196
209.24	4.189
209.75	4.189
210.25	4.185
210.76	4.175
211.26	4.172
211.76	4.162
212.27	4.151
212.77	4.141
213.28	4.138
213.78	4.128
214.29	4.121
214.79	4.117
215.29	4.107
215.8	4.104
216.3	4.1
216.81	4.093
217.31	4.09
217.82	4.087
218.32	4.087
218.82	4.083
219.33	4.076
219.83	4.073
220.34	4.07
220.84	4.056
221.34	4.049
221.85	4.039
222.35	4.022
222.86	4.005
223.36	3.981
223.87	3.957
224.37	3.926
224.87	3.892
225.38	3.855
225.88	3.814
226.39	3.78
226.89	3.742
227.39	3.712
227.9	3.674
228.4	3.623
228.91	3.579
229.41	3.521
229.92	3.477
230.42	3.422
230.92	3.361
231.43	3.306
231.93	3.241
232.44	3.163
232.94	3.085
233.45	2.999
233.86	2.939
234.35	2.86
234.96	2.781
235.42	2.727
235.96	2.661
236.47	2.584
236.97	2.509
237.47	2.432
237.98	2.363
238.49	2.304
238.99	2.26
239.5	2.219
240	2.185
240.5	2.161
241.01	2.151
241.51	2.158
242.02	2.164
242.52	2.171
243.03	2.188
243.53	2.202
244.03	2.202
244.54	2.205
245.04	2.222
245.55	2.239
246.05	2.256
246.55	2.273
247.06	2.291
247.56	2.308
248.07	2.325
248.57	2.342
249.08	2.359
249.58	2.376
250.08	2.389
250.59	2.41
251.09	2.43
251.6	2.447
252.1	2.464
252.61	2.485
253.11	2.502
253.61	2.526
254.12	2.539
254.62	2.567
255.13	2.57
255.63	2.563
256.13	2.556
256.64	2.556
257.14	2.573
257.65	2.601
258.15	2.628
258.66	2.648
259.16	2.669
259.66	2.696
260.17	2.72
260.67	2.727
261.18	2.706
261.68	2.669
262.18	2.659
262.69	2.655
263.19	2.665
263.7	2.696
264.2	2.727
264.71	2.751
265.21	2.764
265.71	2.754
266.22	2.737
266.72	2.72
267.23	2.676
267.73	2.628
268.24	2.584
268.74	2.553
269.24	2.543
269.75	2.543
270.25	2.556
270.76	2.594
271.26	2.618
271.76	2.614
272.27	2.577
272.77	2.526
273.28	2.403
273.78	2.243
274.29	2.117
274.79	2.025
275.29	1.946
275.8	1.844
276.3	1.738
276.81	1.633
277.31	1.53
277.82	1.449
277.95	1.426
278.62	1.341
279.15	1.267
279.76	1.205
280.2	1.152
280.75	1.087
281.28	1.024
281.85	0.958
282.35	0.897
282.86	0.839
283.36	0.784
283.87	0.723
284.37	0.672
284.87	0.621
285.38	0.569
