Uv/Vis Spectrum: o,o'-Iminostilbene
Formula: C14H11N
CAS: 256-96-2
Melting point: 196-200
Instrument: Unicam SP 800
Origin: INSTITUTE OF ENERGY PROBLEMS OF CHEMICAL PHYSICS, RAS
Wavelength (nm)	Logarithm epsilon
216.98	4.246
218.36	4.237
219.9	4.227
221.38	4.217
222.75	4.209
224.28	4.198
225.81	4.188
227.17	4.174
228.52	4.161
229.88	4.147
231.41	4.14
232.94	4.14
234.47	4.144
235.83	4.154
237.18	4.168
238.47	4.181
239.82	4.197
240.75	4.219
241.69	4.238
242.79	4.264
243.81	4.284
244.82	4.308
245.67	4.332
246.69	4.356
247.54	4.38
248.56	4.401
249.41	4.425
250.43	4.445
251.62	4.462
252.8	4.479
254.16	4.493
255.52	4.51
256.88	4.524
258.41	4.52
259.77	4.507
260.78	4.486
261.63	4.459
262.31	4.431
263.33	4.407
264.18	4.383
265.2	4.359
266.22	4.335
266.9	4.308
267.75	4.284
268.59	4.257
269.44	4.233
270.29	4.205
270.8	4.178
271.65	4.15
272.33	4.123
273.01	4.096
273.69	4.068
274.2	4.041
274.71	4.01
275.56	3.986
276.4	3.962
277.08	3.935
277.93	3.907
278.78	3.88
279.46	3.852
280.14	3.825
280.82	3.798
281.41	3.768
282.18	3.739
283.03	3.712
284.09	3.691
285.37	3.673
286.84	3.665
288.63	3.664
290.16	3.664
291.69	3.664
293.21	3.661
294.74	3.654
296.1	3.64
297.46	3.626
298.82	3.609
300.17	3.592
301.36	3.575
302.45	3.557
303.74	3.537
304.93	3.517
306.12	3.5
307.14	3.479
308.15	3.455
309.17	3.431
310.19	3.411
311.21	3.387
312.23	3.366
313.08	3.342
314.1	3.318
314.95	3.294
315.79	3.27
316.81	3.246
317.66	3.219
318.68	3.198
319.53	3.174
320.55	3.15
321.74	3.13
322.59	3.106
323.61	3.085
324.79	3.065
326.15	3.047
327.51	3.03
328.87	3.017
330.4	3.01
331.92	3.01
333.45	3.013
334.81	3.023
336.34	3.023
337.87	3.02
339.4	3.017
340.92	3.01
342.45	3.006
343.98	2.999
345.51	3.003
347.04	3.006
348.39	3.017
349.75	3.03
351.04	3.045
352.21	3.061
353.66	3.078
355.19	3.082
356.71	3.078
357.73	3.058
359.26	3.047
360.45	3.027
361.3	2.999
361.72	2.974
362.49	2.941
363	2.914
363.67	2.886
364.52	2.862
365.54	2.838
366.56	2.815
367.92	2.797
369.45	2.787
370.81	2.773
372.33	2.763
373.86	2.753
375.39	2.749
376.92	2.739
378.45	2.732
379.8	2.719
381.33	2.715
382.69	2.701
384.22	2.698
385.58	2.684
387.11	2.677
388.46	2.664
389.99	2.657
391.35	2.647
392.71	2.633
394.24	2.623
395.59	2.609
396.95	2.599
398.48	2.588
399.84	2.575
401.2	2.558
402.73	2.547
404.08	2.534
405.44	2.52
406.8	2.506
407.99	2.486
409.35	2.472
410.71	2.458
412.06	2.445
413.42	2.427
414.61	2.41
415.97	2.393
417.33	2.376
418.69	2.359
420.04	2.342
421.23	2.325
422.42	2.308
423.61	2.29
424.8	2.27
426.16	2.253
427.35	2.236
428.53	2.215
429.72	2.198
430.91	2.181
432.1	2.164
433.12	2.143
434.31	2.123
435.49	2.105
436.51	2.085
437.7	2.068
438.89	2.047
440.08	2.03
441.27	2.01
442.29	1.989
443.47	1.968
444.49	1.948
445.51	1.927
446.7	1.907
447.89	1.89
448.91	1.869
449.93	1.849
451.12	1.828
452.3	1.811
453.49	1.79
454.51	1.77
455.7	1.753
456.72	1.729
457.74	1.708
458.93	1.688
460.11	1.67
461.3	1.65
462.49	1.633
463.68	1.612
464.87	1.592
466.06	1.571
467.08	1.55
468.26	1.533
469.28	1.513
470.3	1.492
471.49	1.472
472.68	1.451
473.87	1.431
475.06	1.41
476.24	1.389
477.26	1.369
478.28	1.345
479.47	1.324
480.49	1.304
481.51	1.283
482.53	1.263
483.54	1.239
484.56	1.215
485.58	1.194
486.6	1.174
487.62	1.15
488.64	1.126
489.66	1.105
490.51	1.081
491.35	1.057
492.54	1.037
493.56	1.013
494.41	0.985
495.43	0.961
496.28	0.937
497.3	0.913
498.15	0.889
