Uv/Vis Spectrum: 5,5'-(1,2-ethediylidene)bis-1,3-cyclopentadiene
Formula: C12H10
CAS: 25600-56-0
Melting point: 77 with cyclization
Instrument: Zeiss RPQ 20A/C
Origin: INSTITUTE OF ENERGY PROBLEMS OF CHEMICAL PHYSICS, RAS
Wavelength (nm)	Logarithm epsilon
199.88	3.939
200.68	3.864
201.48	3.794
202.28	3.727
203.08	3.664
203.88	3.605
204.68	3.548
205.48	3.494
206.28	3.443
207.08	3.395
207.88	3.349
208.68	3.306
209.48	3.265
210.28	3.227
211.08	3.191
211.718	3.165
212.518	3.129
213.318	3.099
214.118	3.073
214.918	3.052
215.718	3.034
216.518	3.018
217.318	3.005
218.118	2.994
218.918	2.985
219.718	2.978
220.518	2.975
221.318	2.974
222.118	2.977
222.918	2.985
223.718	2.999
224.065	3.009
224.631	3.03
225.431	3.06
226.231	3.086
227.031	3.109
227.831	3.13
228.631	3.148
229.431	3.163
230.231	3.177
231.031	3.188
231.831	3.198
232.631	3.207
233.431	3.214
234.231	3.22
235.031	3.225
235.831	3.23
236.631	3.233
237.431	3.236
238.231	3.238
239.031	3.239
239.831	3.239
240.631	3.238
241.431	3.237
242.189	3.23
242.989	3.227
243.789	3.225
244.589	3.222
245.389	3.22
246.189	3.218
246.989	3.216
247.789	3.214
248.589	3.212
249.389	3.211
250.189	3.21
250.989	3.209
251.789	3.209
252.589	3.209
253.389	3.209
254.189	3.21
254.989	3.211
255.789	3.213
256.589	3.215
257.389	3.217
258.189	3.22
258.989	3.223
259.789	3.227
260.589	3.231
261.389	3.235
262.189	3.24
262.989	3.246
263.789	3.252
264.589	3.258
265.389	3.265
266.189	3.272
266.989	3.279
267.789	3.287
268.589	3.296
269.389	3.304
270.189	3.314
270.989	3.323
271.789	3.333
272.589	3.344
273.389	3.355
274.189	3.366
274.989	3.377
275.789	3.389
276.589	3.401
277.389	3.414
278.189	3.427
278.989	3.44
279.789	3.454
280.589	3.468
281.389	3.482
282.189	3.497
282.989	3.512
283.789	3.527
284.589	3.542
285.389	3.558
286.189	3.574
286.989	3.591
287.789	3.607
288.589	3.624
289.389	3.642
290.189	3.66
290.989	3.678
291.789	3.696
292.589	3.715
293.389	3.734
294.189	3.753
294.989	3.773
295.789	3.794
296.589	3.814
297.389	3.836
298.189	3.857
298.989	3.879
299.789	3.902
300.589	3.925
301.389	3.949
302.189	3.974
302.989	3.999
303.789	4.025
303.867	4.025
304.667	4.055
305.467	4.081
306.267	4.105
307.067	4.126
307.867	4.144
308.667	4.161
309.467	4.177
310.267	4.192
311.067	4.206
311.867	4.221
312.667	4.235
313.467	4.251
314.267	4.267
315.067	4.285
315.867	4.305
316.667	4.326
317.467	4.351
318.267	4.378
319.067	4.408
319.784	4.443
320.584	4.469
321.384	4.491
322.184	4.509
322.984	4.522
323.784	4.533
324.584	4.539
325.384	4.543
326.184	4.543
326.984	4.541
327.493	4.542
328.293	4.533
329.093	4.527
329.893	4.525
330.693	4.528
331.493	4.535
332.293	4.548
333.093	4.566
333.893	4.591
334.756	4.627
335.556	4.667
336.356	4.702
337.156	4.732
337.956	4.756
338.756	4.775
339.556	4.789
340.356	4.797
341.156	4.8
341.956	4.797
342.756	4.788
343.556	4.774
344.311	4.759
345.111	4.723
345.911	4.695
346.711	4.675
347.511	4.661
348.311	4.648
349.111	4.633
350.044	4.604
350.844	4.581
351.644	4.578
352.444	4.579
353.244	4.58
354.044	4.595
354.44	4.635
354.95	4.675
355.75	4.764
356.55	4.823
357.201	4.844
358.405	4.852
359.497	4.839
360.436	4.803
360.945	4.77
361.745	4.723
362.545	4.663
363.345	4.591
364.145	4.51
364.945	4.421
365.745	4.328
366.545	4.23
367.345	4.13
368.145	4.03
368.945	3.931
369.745	3.833
370.545	3.739
371.345	3.648
372.145	3.562
372.945	3.482
373.745	3.407
374.545	3.338
375.345	3.276
376.145	3.219
376.945	3.169
377.745	3.124
378.545	3.084
378.848	3.092
379.848	3.035
380.848	2.984
381.848	2.938
382.848	2.898
383.848	2.862
384.848	2.831
385.848	2.804
386.848	2.78
387.848	2.76
388.848	2.744
389.848	2.73
390.848	2.718
391.848	2.709
392.848	2.702
393.848	2.697
394.848	2.693
395.848	2.691
396.848	2.69
397.848	2.689
398.848	2.689
399.848	2.69
400.848	2.691
401.848	2.692
402.848	2.693
403.848	2.694
404.848	2.694
405.848	2.694
406.848	2.694
407.848	2.693
408.848	2.692
409.697	2.692
411.116	2.692
413.039	2.691
415.079	2.69
417.072	2.688
419.072	2.689
421.072	2.69
423.072	2.69
425.072	2.691
427.072	2.691
429.072	2.691
431.072	2.691
433.072	2.691
435.072	2.69
437.072	2.689
439.072	2.688
441.072	2.687
443.072	2.686
445.072	2.684
447.072	2.682
449.072	2.68
451.072	2.677
453.072	2.675
455.072	2.672
457.072	2.669
459.072	2.665
461.072	2.661
463.072	2.658
465.072	2.653
467.072	2.649
469.072	2.644
471.072	2.639
473.072	2.634
475.072	2.629
477.072	2.623
479.072	2.617
481.072	2.611
483.072	2.605
485.072	2.598
487.072	2.592
489.072	2.585
491.072	2.577
493.072	2.57
495.072	2.562
497.072	2.554
499.072	2.546
501.072	2.538
503.072	2.53
505.072	2.521
507.072	2.512
509.072	2.503
511.072	2.494
513.072	2.484
515.072	2.474
517.072	2.464
519.072	2.454
521.072	2.444
523.072	2.434
525.072	2.423
527.072	2.412
529.072	2.401
531.072	2.389
533.072	2.378
535.072	2.366
537.072	2.354
539.072	2.342
541.072	2.329
543.072	2.317
545.072	2.304
547.072	2.29
549.072	2.277
551.072	2.263
553.072	2.249
555.072	2.235
557.072	2.221
559.072	2.206
561.072	2.191
563.072	2.175
565.072	2.16
567.072	2.144
569.072	2.128
571.072	2.111
573.072	2.094
575.072	2.077
577.072	2.06
579.072	2.042
581.072	2.024
583.072	2.005
585.072	1.986
587.072	1.967
589.072	1.947
591.072	1.928
593.072	1.907
595.072	1.886
597.072	1.865
599.072	1.844
601.072	1.822
603.072	1.8
605.072	1.777
607.072	1.754
609.072	1.731
611.072	1.707
613.072	1.683
615.072	1.658
617.072	1.634
619.072	1.608
621.072	1.583
623.072	1.557
625.072	1.53
627.072	1.504
629.072	1.477
631.072	1.45
633.072	1.422
635.072	1.394
637.072	1.366
639.072	1.338
641.072	1.309
643.072	1.281
