Uv/Vis Spectrum: 1-Piperidinyloxy, 2,2,6,6-tetramethyl-
Formula: C9H18NO
CAS: 2564-83-2
Melting point: 37.8-38.1
Instrument: SF-16
Origin: INSTITUTE OF ENERGY PROBLEMS OF CHEMICAL PHYSICS, RAS
Wavelength (nm)	Logarithm epsilon
211.34	3.086
216.31	3.129
220.56	3.179
224.81	3.222
229.78	3.265
235.45	3.286
241.83	3.272
247.5	3.243
252.46	3.201
256.72	3.151
260.26	3.094
263.81	3.037
265.93	2.98
268.77	2.923
271.6	2.865
273.73	2.808
275.86	2.751
278.69	2.694
280.82	2.637
282.24	2.573
283.66	2.509
285.07	2.445
287.2	2.388
288.62	2.324
290.75	2.259
292.16	2.195
293.58	2.131
295.71	2.074
297.13	2.01
298.54	1.946
299.96	1.882
301.38	1.817
302.8	1.753
304.22	1.689
305.63	1.625
307.05	1.561
307.76	1.497
308.47	1.432
309.89	1.368
311.31	1.304
312.72	1.24
314.14	1.176
315.56	1.112
316.27	1.047
317.69	0.983
319.1	0.919
319.81	0.855
320.52	0.791
321.94	0.727
322.65	0.662
324.07	0.598
325.49	0.534
326.19	0.47
327.61	0.406
329.03	0.342
329.74	0.277
331.87	0.22
333.99	0.163
339.66	0.128
344.63	0.163
349.59	0.199
353.84	0.249
358.1	0.299
361.64	0.356
365.9	0.406
368.73	0.463
372.99	0.513
375.82	0.57
380.07	0.62
383.62	0.677
387.87	0.727
392.13	0.777
396.38	0.819
401.34	0.862
406.31	0.905
411.98	0.941
416.94	0.976
422.61	1.012
428.28	1.033
433.96	1.055
440.34	1.069
446.72	1.062
453.1	1.055
459.48	1.04
465.86	1.019
471.53	0.99
477.2	0.969
482.87	0.941
487.84	0.905
492.8	0.869
497.76	0.826
502.72	0.784
507.69	0.741
511.94	0.698
516.19	0.655
520.45	0.613
524.7	0.57
528.25	0.52
532.5	0.477
536.75	0.434
