Uv/Vis Spectrum: Benzonitrile, 2,4,6-trimethyl-
Formula: C10H11N
CAS: 2571-52-0
Melting point: 55
Boiling point: 225-230
Instrument: SF-4A
Origin: INSTITUTE OF ENERGY PROBLEMS OF CHEMICAL PHYSICS, RAS
Wavelength (nm)	Logarithm epsilon
222.995	3.629
223.995	3.653
224.995	3.668
225.995	3.681
226.995	3.693
227.995	3.708
228.995	3.729
229.995	3.756
230.995	3.79
231.995	3.831
233.029	3.876
234.029	3.936
235.029	3.991
236.029	4.037
237.029	4.074
238.029	4.1
239.029	4.117
240.029	4.126
241.077	4.13
242.109	4.131
243.205	4.129
244.271	4.125
245.152	4.121
246.124	4.118
247.029	4.111
248.029	4.105
249.029	4.092
250.029	4.064
251.029	4.013
252.052	3.894
253.052	3.779
254.052	3.681
255.052	3.597
256.052	3.527
257.052	3.469
258.052	3.421
259.052	3.383
260.052	3.353
261.052	3.328
262.052	3.309
263.052	3.294
264.052	3.282
265.052	3.272
266.052	3.265
267.052	3.259
268.052	3.256
269.052	3.254
270.052	3.255
271.052	3.258
272.052	3.264
272.968	3.271
273.968	3.281
274.968	3.292
275.968	3.304
276.968	3.316
277.968	3.329
278.968	3.341
279.968	3.352
280.968	3.363
281.968	3.373
282.968	3.382
283.968	3.39
284.968	3.398
285.968	3.404
286.968	3.409
287.968	3.413
288.968	3.416
289.968	3.418
290.968	3.418
291.968	3.417
292.968	3.414
293.968	3.41
294.968	3.404
295.968	3.395
296.968	3.384
297.968	3.371
298.968	3.355
299.968	3.335
300.968	3.312
301.968	3.284
302.968	3.253
303.968	3.217
304.968	3.176
305.968	3.131
306.968	3.08
307.968	3.024
308.968	2.963
309.968	2.897
310.968	2.826
311.968	2.751
312.968	2.672
313.307	2.649
