Uv/Vis Spectrum: Dibenz[b,f]oxepin
Formula: C14H10O
CAS: 257-05-6
Melting point: 109-110
Instrument: Beckman DK-2
Origin: INSTITUTE OF ENERGY PROBLEMS OF CHEMICAL PHYSICS, RAS
Wavelength (nm)	Logarithm epsilon
220.7	4.354
220.84	4.357
220.98	4.357
221.12	4.357
221.26	4.36
221.41	4.36
221.55	4.363
221.69	4.363
221.83	4.363
221.97	4.365
222.25	4.365
223.09	4.371
223.93	4.371
224.78	4.374
225.62	4.371
226.46	4.368
227.31	4.368
228.15	4.368
228.99	4.365
229.84	4.365
230.68	4.365
231.52	4.365
232.37	4.368
233.21	4.368
234.05	4.368
234.89	4.365
235.74	4.354
236.58	4.343
237.42	4.329
238.27	4.309
239.11	4.29
239.95	4.27
240.8	4.245
241.64	4.222
242.48	4.166
243.33	4.107
244.17	4.051
245.01	3.995
245.85	3.936
246.7	3.883
247.54	3.824
248.38	3.777
249.23	3.723
250.07	3.676
250.91	3.622
251.76	3.566
252.6	3.51
253.44	3.474
254.29	3.443
255.13	3.418
255.97	3.401
256.81	3.393
257.66	3.401
258.5	3.415
259.34	3.432
260.19	3.451
261.03	3.471
261.87	3.493
262.72	3.513
263.56	3.53
264.4	3.552
265.25	3.572
266.09	3.594
266.93	3.62
267.78	3.648
268.62	3.673
269.46	3.701
270.3	3.729
271.15	3.754
271.99	3.779
272.83	3.796
273.68	3.819
274.52	3.833
275.36	3.844
276.21	3.855
277.05	3.869
277.89	3.883
278.74	3.897
279.58	3.906
280.42	3.917
281.26	3.925
282.11	3.931
282.95	3.934
283.79	3.939
284.64	3.942
285.48	3.945
286.32	3.945
287.17	3.948
288.01	3.945
288.85	3.948
289.7	3.945
290.54	3.942
291.38	3.936
292.22	3.931
293.07	3.925
293.91	3.917
294.75	3.914
295.6	3.906
296.44	3.903
297.28	3.892
298.13	3.889
298.97	3.88
299.81	3.878
300.66	3.869
301.5	3.861
302.34	3.861
303.19	3.852
304.03	3.85
304.87	3.841
305.71	3.833
306.56	3.824
307.4	3.813
308.24	3.807
309.09	3.799
309.93	3.788
310.77	3.782
311.62	3.771
312.46	3.76
313.3	3.754
314.15	3.743
314.99	3.732
315.83	3.721
316.67	3.709
317.52	3.698
318.36	3.681
319.2	3.667
320.05	3.656
320.89	3.642
321.73	3.625
322.58	3.611
323.42	3.594
324.26	3.575
325.11	3.558
325.95	3.541
326.79	3.524
327.63	3.507
328.48	3.485
329.32	3.465
330.16	3.446
331.01	3.423
331.85	3.404
332.69	3.379
333.54	3.356
334.38	3.336
335.22	3.314
336.07	3.28
336.91	3.252
337.75	3.219
338.59	3.185
339.44	3.149
