Uv/Vis Spectrum: Diazene, (1,1-dimethylethyl)(trimethylsilyl)-
Formula: C7H18N2Si
CAS: 25811-66-9
Instrument: Cary 14
Origin: INSTITUTE OF ENERGY PROBLEMS OF CHEMICAL PHYSICS, RAS
Wavelength (nm)	Logarithm epsilon
172.01	3.334
172.22	3.327
172.44	3.323
172.65	3.315
172.87	3.311
173.08	3.304
173.3	3.296
173.52	3.292
174.17	3.265
175.28	3.227
176.4	3.193
177.53	3.15
178.68	3.128
179.84	3.101
181.02	3.082
182.21	3.066
183.42	3.051
184.64	3.032
185.88	3.024
187.14	3.02
188.42	3.024
189.71	3.028
191.02	3.032
192.35	3.04
193.7	3.036
195.06	3.04
196.45	3.043
197.86	3.04
199.28	3.036
200.73	3.024
202.2	3.013
203.69	3.001
205.2	2.971
206.73	2.929
208.29	2.909
209.87	2.856
211.48	2.753
213.11	2.58
214.76	2.42
216.44	2.244
218.15	2.117
219.88	1.98
221.65	1.834
223.44	1.712
225.26	1.562
227.11	1.432
228.99	1.367
230.9	1.272
232.85	1.172
234.82	1.111
236.84	1.05
