Uv/Vis Spectrum: 1,2-dimethyl-1H-indol-5-ol
Formula: C10H11NO
CAS: 25888-06-6
Melting point: 147-148
Instrument: Cary 15
Origin: INSTITUTE OF ENERGY PROBLEMS OF CHEMICAL PHYSICS, RAS
Wavelength (nm)	Logarithm epsilon
200.634	4.487
201.187	4.489
202.187	4.494
203.187	4.498
204.187	4.501
205.187	4.505
206.187	4.51
207.187	4.514
208.187	4.515
209.187	4.513
210.187	4.506
211.187	4.495
212.187	4.482
213.442	4.471
214.442	4.464
215.442	4.462
216.442	4.462
217.442	4.461
218.442	4.459
219.442	4.455
220.442	4.45
221.442	4.442
222.442	4.432
223.442	4.421
224.442	4.408
225.442	4.393
226.442	4.374
227.442	4.35
228.31	4.317
229.31	4.275
230.31	4.208
231.31	4.134
232.31	4.058
233.31	3.982
234.31	3.908
235.31	3.839
236.31	3.776
237.31	3.72
238.31	3.672
239.011	3.632
239.933	3.597
240.856	3.563
241.819	3.533
242.778	3.511
243.778	3.493
244.778	3.478
245.778	3.465
246.778	3.454
247.778	3.444
248.778	3.437
249.778	3.431
250.778	3.428
251.778	3.427
252.778	3.429
253.778	3.434
254.778	3.444
255.778	3.458
256.778	3.478
257.778	3.504
259.114	3.538
260.114	3.566
261.114	3.596
262.114	3.626
263.114	3.656
264.114	3.684
265.114	3.71
266.114	3.734
267.114	3.757
268.114	3.779
269.114	3.8
270.289	3.824
271.289	3.852
272.289	3.875
273.289	3.895
274.289	3.91
275.289	3.922
276.289	3.93
277.289	3.934
278.289	3.934
279.289	3.933
280.289	3.928
281.289	3.922
282.289	3.915
283.289	3.907
284.289	3.9
285.575	3.889
286.979	3.875
288.383	3.861
289.787	3.843
291.191	3.833
292.595	3.819
293.999	3.802
295.403	3.788
296.807	3.781
298.211	3.774
299.615	3.77
301.019	3.763
302.423	3.749
303.827	3.721
305.231	3.693
306.635	3.669
308.039	3.637
309.443	3.609
310.847	3.571
312.251	3.543
313.655	3.518
315.059	3.487
316.291	3.46
317.781	3.432
319.271	3.403
