Uv/Vis Spectrum: Biphenylene
Formula: C12H8
CAS: 259-79-0
Melting point: 107-111
Instrument: Unicam SP 700
Origin: INSTITUTE OF ENERGY PROBLEMS OF CHEMICAL PHYSICS, RAS
Wavelength (nm)	Logarithm epsilon
402.077	1.12075
401.924	1.21936
401.473	1.21936
401.267	1.24488
401.106	1.28157
401.022	1.21936
400.944	1.318
400.762	1.35421
400.572	1.21936
400.572	1.22649
400.572	1.24054
400.541	1.39023
400.409	1.20429
400.315	1.2129
400.245	1.21706
399.462	1.49746
398.211	1.56861
396.369	1.63979
396.013	1.66811
395.181	1.74282
394.268	1.83095
393.369	1.91969
392.576	1.99625
391.979	2.04781
391.784	2.06022
390.368	2.09284
390.304	2.06686
388.728	2.06139
387.915	2.05818
387.685	2.01503
387.418	2.0592
385.629	2.11375
385.063	2.14242
383.296	2.15008
382.402	2.15391
381.266	2.24389
380.108	2.33387
378.748	2.36984
377.119	2.44381
376.388	2.51897
375.909	2.59352
375.566	2.62999
372.807	2.76474
371.285	2.8417
370.422	2.88971
369.664	2.93759
368.685	2.96611
367.383	2.99835
367.09	3.02335
365.92	3.11212
364.681	3.21597
364.519	3.3039
364.359	3.31126
364.209	3.29096
363.979	3.31437
363.733	3.30613
363.613	3.36537
363.268	3.41431
362.635	3.50611
362.07	3.58993
361.562	3.66593
361.101	3.73426
360.68	3.7951
360.286	3.84858
359.913	3.89489
359.549	3.93417
359.284	3.93563
358.728	3.93826
358.685	3.94973
358.564	3.97246
357.943	3.93545
357.228	3.92983
356.829	3.89223
356.029	3.817
355.228	3.74173
354.428	3.66643
353.629	3.59111
352.832	3.51578
352.664	3.51373
352.294	3.5094
351.812	3.49375
351.632	3.5071
350.434	3.51861
349.412	3.54973
347.217	3.58945
345.693	3.68668
345.448	3.7297
343.206	3.7297
342.079	3.7297
341.028	3.75854
340.095	3.76901
339.742	3.77379
339.742	3.77641
339.301	3.76772
338.892	3.76697
337.587	3.69023
336.732	3.61215
335.93	3.53349
334.791	3.45503
334.562	3.45324
334.08	3.44967
332.666	3.45696
330.232	3.47213
329.602	3.44911
326.229	3.44328
325.977	3.4415
325.445	3.43792
324.45	3.40903
321.346	3.34858
320.779	3.32445
319.081	3.24424
317.146	3.15262
316.275	3.11424
311.876	3.04276
310.771	2.99937
309.617	2.98065
309.23	2.9695
305.847	2.89405
304.744	2.85463
302.986	2.78045
300.966	2.70706
298.674	2.63305
297.215	2.59981
294.576	2.51818
294.368	2.51039
293.476	2.48831
293.476	2.49053
293.476	2.49469
293.359	2.48831
293.103	2.48831
292.186	2.44968
289.638	2.36912
286.624	2.2915
286.299	2.2768
284.63	2.24989
284.202	2.23431
281.995	2.21058
279.861	2.22519
277.217	2.296
275.668	2.3754
275.257	2.40203
274.425	2.47052
273.635	2.53906
272.878	2.60764
272.148	2.67625
271.437	2.74486
270.736	2.81347
270.04	2.88208
269.339	2.95066
268.628	3.0192
267.899	3.08769
267.341	3.12552
266.199	3.20033
265.014	3.27434
263.772	3.348
263.126	3.38483
260.836	3.48853
259.648	3.54437
259.573	3.55265
259.152	3.56581
258.419	3.6145
256.965	3.71157
256.598	3.74553
255.916	3.81338
255.299	3.88119
254.742	3.94895
254.242	4.01668
253.792	4.0844
253.389	4.15211
253.029	4.21983
252.706	4.28758
252.418	4.35536
252.159	4.42318
251.926	4.49106
251.715	4.55902
251.616	4.59303
251.45	4.59736
251.359	4.59941
250.989	4.67129
250.719	4.74293
250.465	4.81429
250.145	4.88534
249.678	4.95604
249.364	4.99125
248.969	4.99558
248.859	5.01115
248.764	4.99763
248.638	4.99661
248.293	4.991
248.12	4.98819
247.426	4.90946
246.731	4.83065
246.038	4.7518
245.346	4.67293
245.178	4.67191
244.842	4.66986
244.112	4.69029
242.949	4.74951
242.147	4.76149
240.098	4.79112
239.744	4.79096
239.25	4.78678
238.487	4.74425
237.63	4.65392
237.328	4.60809
236.276	4.51044
236.144	4.49832
234.595	4.46909
233.978	4.45365
232.1	4.36654
230.768	4.30521
229.925	4.26424
228.743	4.16767
228.149	4.11924
226.868	4.04839
226.674	4.04266
225.299	3.97839
224.614	3.94464
223.398	3.90291
222.767	3.89052
221.659	3.86444
221.349	3.85095
220.599	3.83556
220.22	3.82772
218.601	3.82977
217.935	3.83079
216.308	3.80462
215.201	3.79352
214.45	3.79581
214.076	3.79684
211.804	3.82607
210.678	3.83615
208.009	3.88274
205.383	3.92893
203.118	3.98216
202.885	3.99143
202.375	4.00871
