Uv/Vis Spectrum: Acridine
Formula: C13H9N
CAS: 260-94-6
Melting point: 106 (form a); 110 (form b)
Boiling point: 345.5
Instrument: Zeiss PMQ II
Origin: INSTITUTE OF ENERGY PROBLEMS OF CHEMICAL PHYSICS, RAS
Wavelength (nm)	Logarithm epsilon
395.339	2.69014
395.032	2.77342
394.714	2.85669
394.389	2.9399
394.058	3.02303
393.893	3.06455
393.537	3.09984
393.097	3.18417
392.613	3.29276
392.124	3.40082
391.671	3.48356
391.47	3.50768
390.781	3.51351
390.438	3.51643
389.243	3.51367
388.649	3.51211
387.589	3.47402
387.033	3.45479
383.562	3.44211
381.989	3.43648
380.097	3.3585
378.343	3.27711
377.212	3.27725
376.623	3.27732
375.289	3.34674
374.599	3.36712
373.895	3.46891
373.591	3.48433
372.171	3.62511
371.601	3.68098
371.566	3.7015
369.913	3.72681
368.178	3.73397
366.93	3.72415
366.309	3.71901
363.084	3.67597
359.541	3.67306
359.012	3.6875
358.73	3.69454
358.061	3.78233
357.263	3.86962
356.499	3.95621
355.934	4.04192
355.776	4.08439
354.794	4.08903
354.756	4.12068
354.721	4.09522
354.305	4.09117
352.733	4.01577
352.544	3.92917
351.565	3.84341
350.113	3.80459
347.344	3.80578
345.82	3.81342
345.309	3.81091
345.037	3.80943
344.305	3.7347
343.079	3.6992
341.894	3.7009
341.287	3.70152
340.192	3.75801
338.926	3.86333
337.793	3.86225
337.209	3.86153
335.906	3.76788
334.666	3.67247
334.417	3.62574
333.908	3.62582
333.653	3.62586
333.294	3.62838
333.188	3.63197
333.071	3.59432
332.944	3.63871
332.203	3.59281
331.771	3.59206
331.031	3.60368
330.647	3.60949
329.792	3.60838
329.366	3.60764
327.201	3.45963
326.408	3.41832
324.747	3.42563
323.089	3.46364
322.613	3.46372
321.666	3.46388
320.916	3.41692
319.325	3.32286
317.243	3.22841
315.031	3.1922
312.356	3.10033
311.141	3.00394
309.893	3.00712
307.779	3.01523
307.498	3.01187
306.936	3.0047
306.194	2.95885
303.841	2.87772
300.077	2.80618
297.588	2.77231
296.054	2.73153
295.293	2.71114
292.577	2.7091
291.223	2.70785
290.437	2.69392
289.77	2.68473
288.625	2.68497
288.055	2.68509
283.791	2.76691
281.576	2.80766
276.444	2.84207
275.195	2.85387
273.063	2.89737
269.673	2.97383
267.342	3.0258
267.117	3.03611
267.005	3.04108
266.517	3.04272
266.264	3.04331
266.259	3.03621
266.254	3.03058
265.714	3.06657
263.601	3.12285
262.415	3.19697
261.816	3.2338
261.505	3.23674
261.35	3.23803
260.803	3.3294
259.911	3.42047
259.656	3.37278
259.572	3.46608
259.497	3.36421
258.989	3.52852
258.715	3.55175
258.443	3.60772
257.935	3.69979
257.538	3.78581
257.423	3.80574
257.216	3.85854
256.937	3.93729
256.604	4.03506
256.239	4.14495
255.86	4.26002
255.487	4.37336
255.139	4.47805
254.835	4.56718
254.595	4.63382
254.435	4.67105
254.392	4.67647
254.28	4.75626
254.119	4.83666
253.914	4.91739
253.668	4.99817
253.384	5.07871
253.065	5.15873
252.715	5.23795
252.529	5.27718
251.969	5.27885
251.681	5.27947
251.062	5.19748
250.436	5.11487
249.882	5.03098
249.657	4.98834
248.241	4.99181
247.568	4.99961
247.161	4.99714
246.947	4.99568
245.309	4.83136
245.096	4.82366
244.078	4.87322
243.573	4.9079
243.425	4.88783
243.21	4.88378
242.826	4.79803
242.333	4.70944
241.617	4.62201
241.141	4.57997
239.811	4.5367
239.144	4.51484
238.339	4.44689
237.93	4.41292
236.17	4.35251
235.301	4.32417
234.526	4.21797
234.09	4.1631
233.071	4.12207
231.724	4.05294
229.539	3.97314
226.908	3.89728
225.435	3.87016
224.407	3.87051
223.887	3.87069
221.534	3.93575
219.026	4.00815
217.777	4.04293
216.816	4.04977
215.96	4.06086
212.43	4.06702
208.996	4.05901
207.884	4.0385
205.78	3.98461
203.855	3.91966
202.132	3.85101
