Uv/Vis Spectrum: Thioxanthene
Formula: C13H10S
CAS: 261-31-4
Melting point: 128.5
Boiling point: 341
Instrument: Beckman DK 2
Origin: INSTITUTE OF ENERGY PROBLEMS OF CHEMICAL PHYSICS, RAS
Wavelength (nm)	Logarithm epsilon
399.376	1.08643
398.029	1.10554
398.029	1.10554
397.448	1.13443
396.952	1.19625
396.952	1.19625
396.893	1.20383
396.86	1.16321
396.735	1.19491
396.695	1.20875
396.499	1.19345
396.255	1.19193
396.255	1.19193
396.118	1.21345
396.118	1.21345
395.502	1.24631
394.888	1.27916
394.276	1.31201
393.665	1.34487
393.057	1.37772
392.45	1.41057
391.845	1.44342
391.242	1.47627
390.641	1.50912
390.042	1.54197
389.444	1.57482
388.849	1.60767
388.255	1.64052
387.663	1.67337
387.072	1.70622
386.484	1.73906
385.897	1.77191
385.312	1.80476
384.729	1.8376
384.147	1.87045
383.567	1.9033
382.989	1.93614
382.413	1.96899
381.838	2.00183
381.265	2.03468
380.694	2.06752
380.124	2.10036
379.556	2.13321
378.99	2.16605
378.425	2.19889
377.862	2.23174
377.301	2.26458
376.741	2.29742
376.183	2.33027
375.626	2.36311
375.071	2.39595
374.518	2.42879
373.966	2.46163
373.416	2.49447
372.867	2.52732
372.32	2.56016
371.775	2.593
371.231	2.62584
370.688	2.65868
370.147	2.69152
369.608	2.72436
369.07	2.7572
368.533	2.79004
367.998	2.82288
367.465	2.85572
366.933	2.88856
366.402	2.92141
365.873	2.95424
365.346	2.98709
365.346	2.98709
365.159	3.01621
364.951	3.03116
364.543	3.04476
364.543	3.04476
364.005	3.07957
363.478	3.11443
362.959	3.14932
362.445	3.18424
361.934	3.21918
361.423	3.25414
360.909	3.2891
360.389	3.32407
359.862	3.35901
359.323	3.39395
358.771	3.42886
358.203	3.46373
357.617	3.49857
357.01	3.53336
356.379	3.56809
355.723	3.60276
355.039	3.63736
354.324	3.67188
353.577	3.70632
352.795	3.74066
351.977	3.7749
351.977	3.7749
350.44	3.82128
348.914	3.86763
347.395	3.91395
345.881	3.96018
345.881	3.96018
344.852	3.98723
343.122	4.02822
341.266	4.05754
341.266	4.05754
339.74	4.0874
337.557	4.1168
335.302	4.14245
335.302	4.14245
333.447	4.16713
330.356	4.19445
327.883	4.2144
327.883	4.2144
326.293	4.22165
324.665	4.23071
322.89	4.23832
322.89	4.23832
320.801	4.24865
318.127	4.25221
315.574	4.25268
315.574	4.25268
311.43	4.24164
306.992	4.2238
303.758	4.19904
303.758	4.19904
300.892	4.17717
298.13	4.14784
295.396	4.12085
295.396	4.12085
294.675	4.11131
293.37	4.09562
291.666	4.07405
291.666	4.07405
291.161	4.06886
290.329	4.0572
288.548	4.03283
288.548	4.03283
287.274	4.01777
285.427	3.99194
284.372	3.97225
284.372	3.97225
282.163	3.94468
279.981	3.91148
277.442	3.88531
277.442	3.88531
276.562	3.87416
275.197	3.861
273.983	3.85262
273.983	3.85262
271.788	3.83403
268.946	3.83015
265.904	3.83634
263.071	3.84797
260.826	3.86038
260.826	3.86038
259.282	3.87317
257.519	3.88365
255.89	3.8973
255.89	3.8973
254.041	3.91176
252.136	3.93147
250.457	3.94147
250.457	3.94147
249.793	3.95129
248.939	3.9588
248.059	3.9666
248.059	3.9666
247.536	3.9731
245.868	3.99005
242.213	4.02905
242.213	4.02905
240.644	4.05026
238.558	4.06852
236.734	4.08533
236.734	4.08533
234.816	4.08937
232.735	4.08692
230.595	4.07993
228.492	4.0703
226.515	4.05998
224.747	4.05089
224.747	4.05089
223.888	4.05025
223.032	4.04961
222.176	4.04897
222.176	4.04897
220.613	4.06013
219.402	4.07373
218.118	4.09236
218.118	4.09236
216.932	4.12277
215.818	4.15412
214.765	4.18626
213.763	4.21903
212.801	4.25227
211.871	4.2858
210.962	4.31947
210.067	4.35311
