Uv/Vis Spectrum: 5,6-Dimethyl-2,1,3-benzoselenadiazole
Formula: C8H8N2Se
CAS: 2626-34-8
Melting point: 145
Instrument: Cary 14
Origin: INSTITUTE OF ENERGY PROBLEMS OF CHEMICAL PHYSICS, RAS
Wavelength (nm)	Logarithm epsilon
209.377	3.10231
209.642	3.0945
209.907	3.08653
210.173	3.07841
210.44	3.07014
210.708	3.06169
210.977	3.05308
211.248	3.04429
211.52	3.03531
211.794	3.02614
212.07	3.01678
212.348	3.0072
212.628	2.99741
213.083	2.96285
213.476	2.94983
213.81	2.93735
214.17	2.92527
214.641	2.91344
215.306	2.90168
216.252	2.88979
217.563	2.87756
219.324	2.86473
221.618	2.85104
221.618	2.85104
223.193	2.83639
224.783	2.82118
226.403	2.80528
226.403	2.80528
227.37	2.79068
228.442	2.77434
229.643	2.75654
230.996	2.7376
232.525	2.7179
234.253	2.69792
236.205	2.6782
238.404	2.65942
240.873	2.64232
240.873	2.64232
242.203	2.61545
243.536	2.58672
251.606	2.34601
252.517	2.30542
253.497	2.26105
254.567	2.21252
255.749	2.15939
257.063	2.10116
258.534	2.03723
260.18	1.96697
262.024	1.88969
264.089	1.80479
266.394	1.712
268.962	1.61191
271.814	1.50713
274.973	1.40439
275.828	1.3777
280.401	1.46401
283.856	1.55088
286.611	1.64927
289.088	1.76057
291.707	1.88098
294.886	2.00523
295.871	2.04382
296.716	2.13196
297.742	2.20471
298.82	2.26669
299.816	2.32075
300.601	2.36875
300.601	2.36875
301.123	2.36901
301.659	2.36927
302.225	2.36955
302.225	2.36955
302.431	2.39137
302.697	2.41174
303.05	2.43317
303.515	2.45767
304.119	2.48677
304.887	2.52143
305.846	2.56203
307.022	2.60838
308.44	2.65986
308.861	2.67541
309.892	2.70116
310.642	2.72374
311.149	2.74515
311.449	2.76703
311.956	2.77672
312.822	2.80047
313.553	2.82208
314.024	2.84401
314.458	2.85951
314.479	2.8574
314.5	2.85523
314.523	2.85294
314.889	2.86837
315.24	2.88025
315.596	2.89209
315.956	2.90387
316.322	2.91556
316.691	2.92714
317.065	2.93859
317.441	2.9499
317.821	2.96106
318.203	2.97205
318.587	2.98286
318.973	2.99349
319.36	3.00393
319.748	3.01416
320.136	3.02418
320.524	3.03399
320.912	3.04358
321.299	3.05295
321.685	3.06209
322.068	3.07101
322.45	3.07969
322.829	3.08814
323.205	3.09635
323.578	3.10432
323.947	3.11205
324.311	3.11955
324.671	3.12679
325.026	3.1338
325.375	3.14055
325.718	3.14706
326.055	3.15333
326.385	3.15934
326.708	3.1651
327.023	3.17061
327.33	3.17586
327.629	3.18085
327.918	3.18559
328.199	3.19007
328.469	3.19428
328.73	3.19823
328.98	3.20191
328.98	3.20191
329.694	3.20846
330.409	3.21491
331.124	3.22126
331.841	3.22752
332.56	3.23368
333.28	3.23975
334.003	3.24573
334.729	3.25164
335.458	3.25746
336.19	3.26321
336.19	3.26321
336.977	3.2645
337.536	3.2651
338.345	3.2655
338.345	3.2655
340.817	3.25949
342.505	3.25354
343.717	3.2457
343.717	3.2457
343.885	3.24036
344.055	3.23494
344.224	3.22946
344.393	3.2239
344.562	3.21828
344.731	3.21258
344.9	3.20681
345.069	3.20095
345.238	3.19502
345.408	3.18901
345.577	3.18291
345.746	3.17672
345.916	3.17045
346.085	3.16408
346.255	3.15762
346.425	3.15106
346.595	3.1444
346.765	3.13764
346.935	3.13076
347.105	3.12378
347.275	3.11669
347.446	3.10948
347.617	3.10214
347.787	3.09468
347.958	3.08709
348.129	3.07936
348.301	3.0715
348.472	3.06349
348.644	3.05532
348.816	3.047
348.988	3.03852
349.16	3.02988
349.332	3.02105
349.505	3.01204
349.678	3.00284
349.851	2.99344
350.024	2.98384
350.198	2.97402
350.275	2.94302
350.29	2.93209
350.302	2.95364
350.343	2.92084
350.372	2.96396
350.372	2.96396
350.434	2.90925
350.558	2.89731
350.716	2.885
350.772	2.95278
350.786	2.95167
350.801	2.95045
350.817	2.94919
350.861	2.94557
350.903	2.8723
350.997	2.93424
351.118	2.8592
351.134	2.9225
351.272	2.91038
351.359	2.84567
351.623	2.83169
351.908	2.81724
352.212	2.80228
352.532	2.78679
352.867	2.77072
353.214	2.75406
353.57	2.73675
353.935	2.71874
354.304	2.69999
354.677	2.68043
354.763	2.61799
354.992	2.62335
355.051	2.66
355.223	2.62845
355.423	2.63863
355.454	2.63339
355.454	2.63339
355.806	2.63217
356.187	2.63094
356.582	2.62972
356.582	2.62972
357.124	2.60668
357.671	2.58254
358.233	2.5572
358.821	2.53054
359.447	2.5024
360.122	2.4726
360.857	2.44094
361.662	2.40715
362.549	2.37091
363.528	2.33183
364.611	2.2894
365.809	2.24296
367.132	2.19163
368.592	2.13421
370.2	2.06897
