Uv/Vis Spectrum: benzimidazo[1,2-a]quinoxaline
Formula: C14H9N3
CAS: 26223-27-8
Melting point: (double) 170 and 180
Instrument: Cary 14
Origin: INSTITUTE OF ENERGY PROBLEMS OF CHEMICAL PHYSICS, RAS
Wavelength (nm)	Logarithm epsilon
287.821	3.686
288.821	3.676
289.821	3.664
290.821	3.649
291.821	3.634
292.821	3.617
293.821	3.601
294.821	3.585
295.821	3.569
296.821	3.555
297.821	3.542
298.821	3.531
299.821	3.521
300.821	3.513
301.821	3.508
302.821	3.504
303.821	3.502
304.821	3.502
305.821	3.505
306.821	3.509
307.821	3.515
308.821	3.523
309.821	3.533
310.821	3.544
311.821	3.556
312.821	3.57
313.821	3.585
314.821	3.601
315.821	3.617
316.821	3.633
317.038	3.635
318.038	3.654
319.038	3.671
320.038	3.685
321.038	3.697
322.038	3.706
323.038	3.715
324.038	3.721
325.038	3.727
326.038	3.732
327.038	3.737
328.038	3.741
329.038	3.745
330.038	3.75
331.038	3.755
332.038	3.76
333.038	3.766
334.038	3.771
335.038	3.776
336.038	3.779
337.038	3.781
338.038	3.781
339.038	3.776
339.595	3.774
340.595	3.768
341.595	3.761
342.595	3.753
343.595	3.743
344.595	3.733
345.595	3.721
346.595	3.709
347.595	3.696
348.595	3.684
349.595	3.672
350.557	3.657
351.557	3.652
352.557	3.647
353.557	3.643
354.557	3.638
355.557	3.632
356.557	3.626
357.557	3.619
358.557	3.612
359.557	3.603
360.557	3.594
361.557	3.585
362.557	3.574
363.557	3.563
364.557	3.552
365.557	3.541
366.557	3.529
367.557	3.518
368.557	3.507
369.557	3.495
370.557	3.484
371.557	3.474
372.557	3.463
373.557	3.453
374.557	3.443
375.557	3.433
376.557	3.423
377.557	3.412
378.557	3.401
379.557	3.388
380.557	3.374
381.557	3.357
382.557	3.338
383.557	3.315
384.557	3.288
385.557	3.255
386.557	3.215
387.482	3.17
388.482	3.133
389.482	3.097
390.482	3.058
391.482	3.015
392.482	2.968
393.482	2.917
394.482	2.863
395.482	2.808
396.482	2.75
397.482	2.692
398.482	2.631
399.482	2.567
400.482	2.495
401.482	2.409
