Uv/Vis Spectrum: 2(1H)-Pyridinethione
Formula: C5H5NS
CAS: 2637-34-5
Melting point: 124-126
Instrument: Cary Model 14
Origin: INSTITUTE OF ENERGY PROBLEMS OF CHEMICAL PHYSICS, RAS
Wavelength (nm)	Logarithm epsilon
204.47	4.084
205.33	4.061
206.36	4.037
207.22	4.014
208.26	3.99
209.29	3.97
210.32	3.946
211.35	3.926
212.21	3.903
213.25	3.879
214.45	3.859
215.65	3.839
216.86	3.819
218.23	3.802
219.44	3.785
220.64	3.769
221.85	3.748
223.05	3.728
224.25	3.712
225.46	3.695
226.66	3.678
228.04	3.661
229.24	3.644
230.45	3.624
231.82	3.608
233.2	3.594
234.58	3.577
235.78	3.561
237.16	3.544
238.53	3.527
240.08	3.52
241.63	3.514
243	3.524
244.38	3.537
245.58	3.557
246.79	3.577
247.82	3.597
248.68	3.621
249.54	3.644
250.57	3.668
251.43	3.695
252.29	3.718
253.33	3.738
254.19	3.765
255.22	3.789
256.08	3.812
257.11	3.836
257.97	3.859
259	3.883
260.03	3.906
261.07	3.93
261.93	3.953
262.96	3.973
263.82	4
265.02	4.017
266.05	4.04
267.09	4.061
268.46	4.077
269.84	4.091
271.39	4.101
272.93	4.094
274.31	4.081
275.52	4.064
276.72	4.044
277.75	4.02
278.78	3.997
279.64	3.973
280.68	3.95
281.36	3.923
282.22	3.899
282.74	3.873
283.6	3.849
284.46	3.822
285.15	3.795
286.01	3.772
286.7	3.745
287.38	3.718
288.24	3.695
288.93	3.668
289.62	3.641
290.48	3.614
291.17	3.587
292.03	3.564
292.89	3.537
293.92	3.514
294.95	3.493
296.33	3.477
297.88	3.473
299.43	3.47
300.97	3.477
302.35	3.487
303.55	3.504
304.76	3.524
305.79	3.544
307.17	3.561
308.37	3.581
309.4	3.601
310.61	3.621
311.81	3.638
313.01	3.655
314.22	3.675
315.42	3.691
316.63	3.708
317.83	3.725
319.04	3.742
320.24	3.759
321.44	3.775
322.65	3.792
324.02	3.809
325.4	3.826
326.6	3.842
327.81	3.859
329.18	3.876
330.56	3.889
331.94	3.903
333.31	3.913
334.69	3.923
336.24	3.93
337.61	3.94
339.16	3.943
340.71	3.946
342.26	3.946
343.81	3.946
345.35	3.943
346.9	3.94
348.28	3.93
349.83	3.923
351.37	3.913
352.75	3.903
354.13	3.889
355.5	3.873
356.88	3.859
358.26	3.842
359.46	3.826
360.84	3.809
362.04	3.792
363.24	3.775
364.45	3.755
365.48	3.735
366.51	3.715
367.37	3.691
368.4	3.671
369.26	3.648
370.3	3.628
371.16	3.604
372.19	3.581
373.05	3.557
374.08	3.534
374.94	3.51
375.8	3.487
376.66	3.463
377.69	3.44
378.55	3.416
379.41	3.393
380.27	3.366
381.31	3.342
382.17	3.316
383.03	3.292
384.06	3.269
384.75	3.242
385.61	3.218
386.29	3.191
387.33	3.168
388.19	3.144
389.22	3.121
390.08	3.098
391.11	3.074
391.97	3.051
392.83	3.024
393.69	3
394.72	2.98
395.75	2.96
396.79	2.936
397.82	2.916
399.02	2.896
