Uv/Vis Spectrum: 3-(4-fluorophenyl)-2,2-dimethyl-2H-azirine
Formula: C10H10FN
CAS: 26393-90-8
Boiling point: 66-67/3 mm
Instrument: unknown
Origin: INSTITUTE OF ENERGY PROBLEMS OF CHEMICAL PHYSICS, RAS
Wavelength (nm)	Logarithm epsilon
203.944	4.155
204.374	4.132
205.087	4.096
206.087	4.045
207.087	3.995
208.087	3.95
209.087	3.912
210.087	3.882
211.087	3.861
212.087	3.849
213.087	3.845
214.087	3.847
215.087	3.854
216.087	3.865
217.087	3.878
218.087	3.893
219.087	3.911
220.087	3.931
221.166	3.949
222.166	3.966
223.166	3.984
224.166	4.003
225.166	4.023
226.166	4.042
227.166	4.06
228.166	4.078
229.166	4.094
230.166	4.108
231.166	4.121
232.166	4.133
233.166	4.142
234.166	4.15
235.166	4.157
236.166	4.161
237.166	4.164
238.166	4.165
239.166	4.165
240.166	4.162
241.166	4.158
242.166	4.153
243.166	4.145
244.166	4.136
245.166	4.125
246.166	4.112
247.166	4.098
248.166	4.081
249.166	4.063
250.16	4.041
251.16	4.019
252.16	3.996
253.16	3.971
254.16	3.943
255.16	3.911
256.16	3.877
257.16	3.839
258.16	3.798
259.16	3.754
260.16	3.708
261.16	3.66
262.16	3.612
263.16	3.563
264.16	3.515
265.16	3.469
266.16	3.426
267.16	3.385
268.16	3.347
269.16	3.309
270.16	3.271
271.16	3.231
272.16	3.189
273.16	3.145
274.16	3.105
275.16	3.079
276.157	3.081
277.157	3.115
278.251	3.125
279.329	3.099
280.217	3.063
281.106	3.014
281.891	2.948
282.863	2.867
284.106	2.76
285.106	2.775
285.642	2.867
285.864	2.942
286.482	2.998
287.032	2.974
287.587	2.928
288.282	2.834
288.977	2.714
289.671	2.587
290.45	2.449
291.45	2.246
292.45	1.831
