Uv/Vis Spectrum: 6-Aminochrysene
Formula: C18H13N
CAS: 2642-98-0
Melting point: 206-208
Instrument: SF -4
Origin: INSTITUTE OF ENERGY PROBLEMS OF CHEMICAL PHYSICS, RAS
Wavelength (nm)	Logarithm epsilon
224.4	4.566
225.74	4.58
227.26	4.583
228.77	4.583
230.28	4.58
231.8	4.569
233.14	4.556
234.32	4.539
235.5	4.521
236.68	4.501
237.69	4.48
239.03	4.463
240.55	4.46
241.89	4.47
243.07	4.487
244.58	4.487
245.93	4.474
247.28	4.457
248.45	4.439
249.8	4.422
251.15	4.409
252.66	4.412
254.01	4.426
255.18	4.443
256.19	4.463
257.2	4.487
258.21	4.511
259.05	4.539
260.06	4.559
260.9	4.583
261.91	4.607
262.92	4.631
263.76	4.655
264.77	4.679
265.61	4.703
266.62	4.727
267.47	4.754
268.48	4.778
269.32	4.805
270.33	4.829
271.34	4.85
272.51	4.87
273.69	4.891
275.04	4.904
276.55	4.908
278.06	4.901
279.07	4.88
280.08	4.856
280.93	4.833
281.77	4.805
282.44	4.778
283.11	4.75
283.62	4.723
284.12	4.692
284.63	4.662
284.96	4.631
285.3	4.6
285.64	4.569
285.89	4.547
286.31	4.508
286.65	4.477
286.98	4.446
287.15	4.416
287.49	4.385
287.82	4.354
288.16	4.323
288.5	4.292
288.66	4.262
288.83	4.231
289.17	4.2
289.34	4.169
289.67	4.139
289.84	4.108
290.01	4.077
290.35	4.046
290.68	4.016
291.19	3.988
291.69	3.961
292.53	3.934
293.38	3.906
294.22	3.882
295.26	3.859
296.51	3.84
297.76	3.821
299.01	3.804
300.47	3.789
301.72	3.776
303.13	3.766
304.65	3.763
306.16	3.766
307.57	3.772
309.19	3.783
310.54	3.797
311.88	3.811
313.06	3.828
314.24	3.845
315.41	3.862
316.48	3.878
317.77	3.899
318.95	3.917
320.19	3.94
321.3	3.954
322.48	3.971
323.66	3.988
325	4.005
326.35	4.019
327.7	4.036
329.04	4.05
330.39	4.063
331.73	4.077
333.08	4.091
334.54	4.101
335.94	4.108
337.45	4.115
338.97	4.118
340.48	4.125
342	4.128
343.51	4.125
344.97	4.121
346.54	4.111
347.89	4.101
349.23	4.087
350.75	4.077
352.09	4.06
353.27	4.043
354.45	4.026
355.62	4.009
356.8	3.988
358.15	3.971
359.33	3.954
360.67	3.937
361.85	3.92
363.03	3.903
364.21	3.882
365.21	3.862
366.39	3.841
367.57	3.824
368.75	3.804
369.76	3.783
370.94	3.763
372.11	3.742
373.29	3.722
374.3	3.701
375.31	3.681
376.49	3.66
377.66	3.643
378.84	3.623
379.85	3.602
381.03	3.582
382.21	3.564
383.39	3.544
384.39	3.52
385.57	3.5
386.75	3.479
387.76	3.459
388.77	3.438
389.95	3.417
391.12	3.397
391.97	3.373
393.14	3.353
393.98	3.329
394.99	3.305
396	3.281
396.84	3.257
397.85	3.233
398.7	3.206
399.7	3.185
400.55	3.158
401.56	3.134
402.4	3.106
403.24	3.083
404.08	3.059
404.75	3.031
405.59	3.007
406.27	2.98
407.11	2.953
407.78	2.925
408.45	2.898
409.13	2.871
409.8	2.843
410.47	2.816
411.15	2.789
411.82	2.761
412.49	2.734
413.16	2.707
413.84	2.679
414.68	2.655
415.18	2.628
416.02	2.604
416.7	2.577
417.54	2.553
418.21	2.525
419.22	2.501
420.06	2.478
421.07	2.454
422.08	2.433
423.09	2.413
424.27	2.392
425.45	2.372
426.79	2.355
428.14	2.337
