Uv/Vis Spectrum: 2,3,4,5,6,7,8,9-octahydro-9-phenyl-1H-xanthene
Formula: C19H22O
CAS: 26477-52-1
Melting point: 98-99
Instrument: SF-4
Origin: INSTITUTE OF ENERGY PROBLEMS OF CHEMICAL PHYSICS, RAS
Wavelength (nm)	Logarithm epsilon
212.025	4.209
213.025	4.19
214.025	4.145
215.025	4.098
216.025	4.062
217.025	4.037
218.025	4.018
219.025	3.997
220.025	3.963
221.025	3.909
222.025	3.833
222.947	3.753
223.947	3.673
224.947	3.599
225.947	3.529
226.947	3.464
227.947	3.403
228.947	3.347
229.947	3.296
230.947	3.25
231.947	3.208
232.947	3.171
233.947	3.139
234.947	3.111
235.947	3.088
236.947	3.07
237.947	3.057
238.815	3.052
239.815	3.044
240.815	3.033
241.815	3.022
242.815	3.012
243.815	3.004
244.815	2.998
245.815	2.995
246.815	2.993
247.815	2.993
248.815	2.993
249.815	2.993
250.815	2.992
251.815	2.991
252.815	2.987
253.815	2.983
254.815	2.978
255.815	2.974
256.815	2.974
257.053	2.974
258.053	2.976
259.053	2.971
260.053	2.962
261.053	2.949
262.053	2.934
263.053	2.919
264.053	2.902
265.053	2.884
266.053	2.865
267.053	2.843
267.975	2.825
268.975	2.787
269.975	2.741
270.975	2.688
271.975	2.628
272.975	2.561
273.951	2.489
274.951	2.405
275.951	2.295
276.951	2.08
277.66	1.671
