Uv/Vis Spectrum: benz[f]azulene
Formula: C14H10
CAS: 267-00-5
Melting point: 159.5-161
Instrument: Beckman DK-2
Origin: INSTITUTE OF ENERGY PROBLEMS OF CHEMICAL PHYSICS, RAS
Wavelength (nm)	Logarithm epsilon
258.751	3.833
260.435	3.887
262.142	3.946
263.872	4.008
265.624	4.073
267.4	4.142
269.199	4.216
271.023	4.295
272.872	4.375
274.746	4.45
276.274	4.52
278.196	4.6
280.144	4.669
282.169	4.718
284.174	4.763
286.207	4.793
288.27	4.801
290.362	4.79
292.485	4.766
294.64	4.736
296.826	4.708
299.045	4.684
301.298	4.661
303.584	4.625
305.906	4.55
308.156	4.417
310.548	4.242
312.978	4.053
315.446	3.892
317.954	3.815
320.114	3.737
322.697	3.642
325.321	3.569
327.989	3.523
330.701	3.503
333.457	3.502
336.261	3.513
339.111	3.531
342.011	3.552
344.96	3.572
347.961	3.589
351.015	3.596
354.122	3.58
357.285	3.519
357.287	3.521
360.508	3.501
363.786	3.523
367.125	3.54
370.526	3.505
373.99	3.402
377.52	3.263
381.117	3.201
384.382	3.235
388.112	3.151
391.914	2.739
392.165	2.701
396.048	2.007
399.669	1.884
403.703	1.843
407.819	1.848
412.02	1.882
416.308	1.929
420.686	1.982
425.158	2.035
429.725	2.086
434.392	2.134
439.161	2.18
444.036	2.224
449.021	2.267
454.119	2.311
459.333	2.355
464.669	2.398
470.131	2.44
475.722	2.48
481.448	2.516
487.313	2.547
493.323	2.572
499.484	2.592
505.8	2.609
511.862	2.622
518.497	2.643
525.306	2.653
532.297	2.652
539.476	2.645
546.851	2.634
554.431	2.622
562.224	2.606
570.239	2.583
578.486	2.548
586.974	2.496
595.716	2.428
604.722	2.345
614.005	2.253
623.577	2.163
633.452	2.084
643.645	2.021
654.171	1.97
665.048	1.907
676.292	1.78
