Uv/Vis Spectrum: 6,7-dimethyl-2,4(1H,3H)-pteridinedithione
Formula: C8H8N4S2
CAS: 26802-96-0
Melting point: 230 (dec.)
Instrument: Cary 14PM-50
Origin: INSTITUTE OF ENERGY PROBLEMS OF CHEMICAL PHYSICS, RAS
Wavelength (nm)	Logarithm epsilon
220.694	3.644
222.194	3.651
223.694	3.66
225.194	3.669
226.694	3.679
228.194	3.691
229.694	3.703
231.194	3.715
232.694	3.729
234.194	3.742
235.694	3.757
237.194	3.771
238.694	3.785
240.194	3.8
241.694	3.815
243.194	3.83
244.694	3.846
246.194	3.863
247.694	3.88
249.194	3.897
250.694	3.916
252.194	3.936
253.694	3.957
255.194	3.978
256.694	4
258.194	4.023
259.371	4.042
260.871	4.06
262.371	4.078
263.871	4.095
265.371	4.111
266.871	4.126
268.371	4.139
269.871	4.15
271.371	4.161
272.871	4.169
274.371	4.176
275.871	4.182
277.371	4.184
278.871	4.182
279.887	4.18
281.387	4.176
282.887	4.175
284.387	4.18
285.887	4.187
287.387	4.194
289.304	4.206
290.804	4.219
292.304	4.232
293.804	4.245
295.304	4.257
296.804	4.266
298.304	4.273
299.804	4.276
301.304	4.275
302.804	4.268
304.304	4.256
305.804	4.239
307.304	4.218
308.475	4.196
309.975	4.171
311.475	4.132
312.975	4.087
314.475	4.041
315.975	3.997
317.475	3.958
318.975	3.926
320.475	3.901
321.975	3.883
323.475	3.873
324.975	3.867
326.475	3.867
327.975	3.87
329.475	3.875
330.975	3.882
332.475	3.889
333.975	3.895
335.475	3.902
336.975	3.908
338.748	3.919
340.248	3.927
341.748	3.934
343.248	3.942
344.748	3.95
346.248	3.958
347.748	3.966
349.248	3.974
350.748	3.982
352.248	3.991
353.748	4
355.248	4.009
356.562	4.016
358.062	4.023
359.592	4.03
361.091	4.035
362.441	4.038
363.94	4.039
365.44	4.043
366.94	4.043
368.44	4.042
369.94	4.042
371.44	4.042
372.94	4.043
374.44	4.045
375.94	4.047
377.44	4.05
378.94	4.053
380.44	4.057
381.94	4.062
383.44	4.069
384.94	4.076
386.44	4.082
387.94	4.085
389.44	4.087
390.94	4.085
392.44	4.08
393.94	4.073
395.44	4.063
396.94	4.052
398.44	4.04
400.097	4.027
400.291	4.022
401.791	4.007
403.291	3.989
404.791	3.968
406.291	3.946
407.791	3.922
409.291	3.897
410.791	3.87
412.291	3.842
413.791	3.813
415.291	3.782
416.791	3.75
418.291	3.716
419.791	3.68
421.291	3.64
422.791	3.598
424.291	3.551
425.791	3.5
427.291	3.443
428.791	3.379
