Uv/Vis Spectrum: Methanone, 2-furanylphenyl-
Formula: C11H8O2
CAS: 2689-59-0
Boiling point: 150/ 10 mm
Instrument: Beckman DU
Origin: INSTITUTE OF ENERGY PROBLEMS OF CHEMICAL PHYSICS, RAS
Wavelength (nm)	Logarithm epsilon
207.16	4.045
207.67	4.018
208.18	3.991
209.03	3.964
209.71	3.936
210.73	3.912
211.58	3.889
212.61	3.865
213.63	3.844
214.82	3.824
215.67	3.8
216.87	3.779
218.06	3.759
219.25	3.739
220.27	3.718
221.3	3.698
222.49	3.677
223.68	3.66
224.87	3.64
225.89	3.619
227.09	3.602
228.28	3.585
229.64	3.572
231.18	3.582
232.54	3.595
233.73	3.616
234.92	3.633
236.12	3.653
237.31	3.67
238.5	3.687
239.52	3.708
240.72	3.725
241.91	3.745
243.1	3.766
244.29	3.786
245.66	3.803
246.85	3.82
248.04	3.837
249.23	3.854
250.43	3.872
251.79	3.889
253.15	3.902
254.52	3.919
255.88	3.929
257.24	3.943
258.6	3.953
260.14	3.957
261.5	3.967
263.03	3.97
264.4	3.984
265.93	3.991
267.29	4.005
268.66	4.018
270.02	4.035
271.38	4.049
272.74	4.066
274.11	4.08
275.47	4.097
276.83	4.114
278.2	4.131
279.39	4.148
280.58	4.165
281.94	4.182
283.14	4.199
284.67	4.206
286.03	4.216
287.57	4.219
289.1	4.219
290.63	4.219
292.17	4.216
293.53	4.206
295.06	4.195
296.42	4.182
297.62	4.165
298.81	4.148
299.66	4.124
300.68	4.103
301.71	4.083
302.73	4.062
303.58	4.035
304.6	4.011
305.45	3.984
306.31	3.96
307.16	3.933
307.84	3.906
308.69	3.882
309.37	3.854
310.22	3.827
310.73	3.8
311.25	3.773
311.93	3.745
312.61	3.718
313.12	3.691
313.8	3.664
314.48	3.636
314.99	3.609
315.68	3.582
316.19	3.554
316.87	3.527
317.38	3.5
318.06	3.473
318.57	3.445
319.08	3.418
319.76	3.391
320.28	3.364
320.96	3.336
321.47	3.309
322.15	3.282
322.66	3.254
323.34	3.227
323.85	3.2
324.36	3.173
325.05	3.145
325.73	3.118
326.24	3.091
326.75	3.064
327.43	3.036
328.11	3.009
328.96	2.982
329.47	2.954
330.33	2.931
331.01	2.903
331.86	2.879
332.54	2.852
333.39	2.828
334.07	2.801
335.1	2.777
335.95	2.75
336.8	2.723
337.82	2.702
338.67	2.675
339.7	2.651
340.72	2.627
341.74	2.603
342.76	2.583
343.78	2.559
344.64	2.535
345.66	2.515
346.68	2.494
347.7	2.474
348.56	2.45
349.58	2.429
350.6	2.406
351.45	2.378
352.47	2.354
353.33	2.327
354.35	2.303
355.2	2.276
356.05	2.252
356.9	2.225
357.92	2.201
358.61	2.174
359.46	2.15
360.31	2.123
360.99	2.095
361.67	2.068
362.35	2.041
363.21	2.017
363.72	1.99
364.57	1.966
365.08	1.938
365.93	1.915
366.61	1.887
367.29	1.86
368.15	1.833
368.66	1.806
369.34	1.778
370.02	1.751
370.53	1.724
371.04	1.696
371.89	1.669
372.41	1.642
373.09	1.615
373.6	1.587
374.11	1.56
374.96	1.533
375.47	1.506
375.98	1.478
376.66	1.451
377.18	1.424
377.52	1.393
378.03	1.366
378.54	1.338
379.05	1.311
379.73	1.284
380.24	1.253
380.75	1.223
381.26	1.195
381.78	1.168
382.29	1.137
382.8	1.11
383.31	1.083
383.65	1.052
383.99	1.021
384.5	0.994
384.84	0.963
385.35	0.936
385.86	0.905
386.2	0.875
386.72	0.844
387.06	0.813
387.57	0.786
387.91	0.755
388.25	0.725
388.42	0.694
388.76	0.663
389.27	0.636
389.61	0.605
389.78	0.575
390.12	0.544
390.46	0.513
390.8	0.483
391.15	0.452
391.49	0.421
391.83	0.391
392	0.36
392.34	0.329
392.68	0.299
392.85	0.268
393.36	0.237
