Uv/Vis Spectrum: Methyl diazene
Formula: CH4N2
CAS: 26981-93-1
Instrument: unknown
Origin: INSTITUTE OF ENERGY PROBLEMS OF CHEMICAL PHYSICS, RAS
Wavelength (nm)	Logarithm epsilon
239	0.683
239.25	0.679
239.51	0.675
239.77	0.671
240.03	0.668
240.8	0.642
241.58	0.622
242.35	0.605
243.13	0.589
243.9	0.569
244.68	0.546
245.45	0.52
246.23	0.489
247	0.455
247.78	0.416
248.55	0.383
249.33	0.348
250.1	0.312
250.88	0.273
251.65	0.231
252.43	0.183
253.2	0.143
253.98	0.102
254.75	0.063
255.52	0.027
256.3	-0.012
257.07	-0.047
257.85	-0.086
258.62	-0.113
259.4	-0.142
260.17	-0.174
260.95	-0.208
262.41	-0.252
263.67	-0.29
265.18	-0.334
267.15	-0.378
269.21	-0.424
271.28	-0.464
273.35	-0.509
275.41	-0.545
277.55	-0.588
280.06	-0.614
282.38	-0.614
284.71	-0.6
287.14	-0.568
289.29	-0.529
291.17	-0.486
293.23	-0.443
295.04	-0.396
296.85	-0.344
298.4	-0.291
299.95	-0.244
301.5	-0.202
302.79	-0.163
304.08	-0.123
305.37	-0.09
306.4	-0.056
307.69	-0.024
308.73	0.006
309.76	0.034
311.05	0.06
311.83	0.085
312.6	0.108
313.63	0.13
314.41	0.151
315.44	0.171
316.22	0.19
316.99	0.211
317.77	0.229
318.8	0.245
319.58	0.264
320.09	0.281
320.87	0.298
321.64	0.314
322.42	0.33
322.93	0.345
323.71	0.359
324.48	0.373
325	0.387
325.77	0.4
326.29	0.413
326.81	0.426
327.32	0.438
328.1	0.45
328.61	0.461
329.13	0.472
329.65	0.483
330.42	0.494
330.94	0.504
331.46	0.514
331.97	0.524
332.49	0.534
333	0.543
333.52	0.553
333.91	0.562
334.3	0.571
334.81	0.579
335.33	0.588
335.85	0.596
336.36	0.604
336.88	0.613
337.4	0.62
337.91	0.628
338.43	0.636
339.2	0.643
339.76	0.651
340.49	0.658
341.27	0.665
342.04	0.672
342.82	0.679
343.59	0.686
344.69	0.694
345.66	0.698
346.69	0.704
347.98	0.71
349.02	0.716
350.57	0.721
351.86	0.726
353.67	0.73
355.47	0.734
357.54	0.737
359.86	0.737
362.19	0.736
364.26	0.733
366.06	0.729
367.35	0.724
368.9	0.719
369.88	0.715
371.27	0.708
372.22	0.702
373.02	0.695
373.81	0.69
374.45	0.684
374.84	0.68
375.1	0.678
375.36	0.676
375.62	0.675
376.14	0.671
376.91	0.665
377.69	0.657
378.46	0.65
379.23	0.641
380.01	0.632
380.78	0.623
381.56	0.613
382.33	0.603
383.11	0.593
383.88	0.583
384.66	0.572
385.43	0.561
386.21	0.549
386.98	0.535
387.76	0.523
388.53	0.51
389.31	0.496
390.08	0.483
390.86	0.47
391.63	0.456
392.41	0.44
393.18	0.426
393.96	0.412
394.73	0.396
395.51	0.38
396.28	0.363
397.06	0.343
397.83	0.326
398.6	0.307
399.38	0.289
400.15	0.27
400.93	0.252
401.7	0.231
402.48	0.211
403.25	0.19
404.03	0.174
404.8	0.154
405.58	0.135
406.35	0.114
407.13	0.099
407.9	0.079
408.68	0.057
409.45	0.041
410.23	0.02
411	-0.005
411.66	-0.025
412.37	-0.047
413.04	-0.065
413.58	-0.082
413.84	-0.09
414.1	-0.099
414.36	-0.104
415.09	-0.121
415.91	-0.142
416.68	-0.168
417.46	-0.19
418.23	-0.219
419.01	-0.244
419.78	-0.277
