Uv/Vis Spectrum: 2,4-dimethyl-7-phenylpyrrolo[1,2-a]pyrimidine-8-carbonitrile
Formula: C16H13N3
CAS: 27078-84-8
Melting point: 248-249
Instrument: SF-16
Origin: INSTITUTE OF ENERGY PROBLEMS OF CHEMICAL PHYSICS, RAS
Wavelength (nm)	Logarithm epsilon
227.563	4.267
228.563	4.269
229.563	4.275
230.563	4.285
231.563	4.296
232.563	4.31
233.563	4.325
234.563	4.34
235.563	4.355
236.563	4.371
237.563	4.386
238.563	4.4
239.563	4.414
240.563	4.427
241.563	4.439
242.563	4.45
243.563	4.461
244.563	4.471
245.563	4.48
246.563	4.488
247.563	4.496
248.563	4.503
249.563	4.51
250.563	4.516
251.563	4.522
252.563	4.527
253.563	4.533
254.563	4.537
255.563	4.542
256.563	4.545
257.563	4.548
258.563	4.551
259.563	4.552
260.563	4.552
261.563	4.551
262.563	4.548
263.563	4.543
264.563	4.537
265.563	4.528
266.563	4.516
267.563	4.502
268.563	4.485
269.563	4.464
270.563	4.441
271.563	4.414
272.563	4.384
273.484	4.354
274.484	4.319
275.484	4.27
276.484	4.213
277.484	4.151
278.484	4.088
279.484	4.026
280.484	3.968
281.484	3.914
282.484	3.866
283.484	3.823
284.484	3.786
284.515	3.787
285.515	3.752
286.515	3.724
287.515	3.705
288.515	3.692
289.515	3.686
290.515	3.684
291.515	3.687
292.515	3.693
293.515	3.702
294.515	3.713
295.29	3.72
296.29	3.734
297.29	3.748
298.29	3.761
299.29	3.772
300.29	3.783
301.29	3.792
302.29	3.8
303.29	3.807
304.29	3.814
305.29	3.819
306.29	3.824
307.29	3.828
308.29	3.831
309.29	3.834
310.29	3.837
311.29	3.84
312.29	3.842
313.29	3.845
315.242	3.845
316.242	3.843
317.242	3.838
318.242	3.833
319.242	3.825
320.242	3.816
321.242	3.806
322.242	3.794
323.242	3.782
324.242	3.769
325.242	3.756
326.242	3.745
327.242	3.735
327.582	3.732
328.582	3.721
329.582	3.712
330.582	3.703
331.582	3.695
332.582	3.689
333.582	3.683
334.582	3.68
335.582	3.677
336.582	3.677
337.582	3.677
338.582	3.68
339.582	3.683
340.582	3.688
341.582	3.694
342.582	3.7
343.519	3.71
344.519	3.715
345.519	3.719
346.519	3.722
347.519	3.725
348.519	3.726
349.519	3.728
350.519	3.729
351.519	3.73
352.519	3.73
353.519	3.73
354.519	3.73
355.519	3.729
356.519	3.728
357.519	3.726
358.519	3.724
359.519	3.721
360.519	3.718
361.519	3.714
362.519	3.71
363.519	3.705
364.519	3.699
365.519	3.693
366.519	3.686
367.519	3.679
368.519	3.671
369.519	3.663
370.519	3.653
371.519	3.643
372.519	3.633
373.519	3.62
374.519	3.607
375.519	3.592
376.519	3.575
376.613	3.574
377.613	3.551
378.613	3.529
379.613	3.507
380.613	3.486
381.613	3.466
382.613	3.445
383.613	3.423
384.613	3.401
385.613	3.378
386.613	3.354
387.613	3.328
388.613	3.3
389.613	3.27
390.613	3.237
