Uv/Vis Spectrum: (5-methyl-2-thienyl)phenylmethanone
Formula: C12H10OS
CAS: 27049-94-1
Boiling point: 130/0.06 mm
Instrument: unknown
Origin: INSTITUTE OF ENERGY PROBLEMS OF CHEMICAL PHYSICS, RAS
Wavelength (nm)	Logarithm epsilon
215.437	3.911
216.937	3.829
218.437	3.776
219.937	3.744
221.437	3.724
222.937	3.708
224.437	3.693
225.937	3.677
227.437	3.662
228.937	3.652
230.437	3.652
231.937	3.666
233.437	3.692
234.773	3.725
236.273	3.767
237.773	3.802
239.273	3.833
240.773	3.86
242.273	3.885
243.773	3.908
245.273	3.93
246.773	3.953
246.857	3.954
248.357	3.979
249.857	3.993
251.357	4.001
252.857	4.004
254.357	4
255.857	3.989
257.454	3.974
258.954	3.961
260.454	3.949
261.954	3.938
263.454	3.93
264.954	3.925
266.454	3.922
267.954	3.921
269.454	3.92
270.954	3.921
272.454	3.922
273.954	3.925
275.302	3.93
276.802	3.944
278.302	3.96
279.802	3.972
281.302	3.98
282.802	3.986
284.302	3.992
285.802	4.003
287.302	4.025
288.688	4.061
290.468	4.085
291.688	4.102
293.188	4.108
294.688	4.11
296.188	4.11
297.688	4.107
299.188	4.101
300.688	4.09
302.188	4.074
302.26	4.072
303.76	4.051
305.26	4.022
306.76	3.983
308.26	3.933
309.76	3.872
311.26	3.801
312.76	3.724
314.26	3.642
315.76	3.555
317.26	3.45
317.505	3.423
319.005	3.298
320.505	3.17
322.005	3.046
323.505	2.929
325.005	2.815
326.505	2.694
328.005	2.544
329.505	2.342
