Uv/Vis Spectrum: Hydrobenzoin
Formula: C14H14O2
CAS: 27134-24-3
Melting point: 138
Instrument: Beckman DU
Origin: INSTITUTE OF ENERGY PROBLEMS OF CHEMICAL PHYSICS, RAS
Wavelength (nm)	Logarithm epsilon
212.68	4.133
212.81	4.133
212.94	4.133
213.06	4.137
213.19	4.137
213.32	4.137
213.45	4.137
213.58	4.137
213.7	4.137
213.83	4.137
213.96	4.137
214.09	4.137
214.22	4.141
214.34	4.141
214.47	4.141
214.6	4.141
214.92	4.138
215.24	4.133
215.75	4.129
216.25	4.123
216.78	4.117
217.3	4.107
217.8	4.096
218.31	4.08
218.72	4.065
219.33	4.034
219.85	4.003
220.46	3.96
220.87	3.925
221.38	3.872
221.9	3.831
222.41	3.77
222.92	3.717
223.43	3.669
223.94	3.628
224.46	3.575
224.95	3.521
225.48	3.44
225.99	3.379
226.38	3.316
227.02	3.192
227.53	3.086
228.04	3.009
228.55	2.915
229.13	2.807
229.58	2.736
230.18	2.635
230.58	2.579
231.11	2.507
231.62	2.45
232.12	2.403
232.65	2.357
233.11	2.311
233.67	2.275
234.07	2.252
234.7	2.234
235.21	2.222
235.72	2.217
236.23	2.214
236.74	2.214
237.26	2.214
237.77	2.214
238.28	2.218
238.83	2.226
239.35	2.237
239.9	2.248
240.33	2.259
240.84	2.271
241.38	2.281
241.86	2.291
242.38	2.3
242.89	2.308
243.4	2.32
244.1	2.337
244.53	2.349
244.95	2.36
245.45	2.373
245.96	2.385
246.47	2.397
246.99	2.41
247.47	2.42
248.01	2.434
248.52	2.45
249.03	2.463
249.55	2.475
250.06	2.491
250.55	2.509
251.08	2.532
251.53	2.551
252.05	2.564
252.62	2.569
253.13	2.569
253.65	2.562
254.01	2.553
254.34	2.541
254.7	2.536
255.18	2.54
255.69	2.548
256.24	2.567
256.71	2.589
256.96	2.606
257.23	2.621
257.48	2.634
257.74	2.642
257.97	2.644
258.25	2.638
258.5	2.628
258.76	2.617
258.99	2.612
259.27	2.609
259.79	2.609
259.97	2.605
260.1	2.587
260.3	2.569
260.81	2.548
261.32	2.536
261.83	2.524
262.35	2.516
262.86	2.511
263.37	2.511
263.88	2.511
264.39	2.511
265.07	2.506
265.42	2.487
265.93	2.454
266.44	2.414
266.84	2.387
267.36	2.348
267.98	2.304
268.49	2.263
269	2.202
269.51	2.153
270.03	2.084
270.54	2.006
271.05	1.929
271.51	1.85
272.08	1.783
272.59	1.737
273.1	1.697
273.61	1.648
274.12	1.607
274.63	1.562
275.15	1.521
275.66	1.489
276.17	1.452
276.68	1.428
277.19	1.395
277.71	1.367
278.22	1.347
278.73	1.33
279.24	1.306
279.75	1.285
280.27	1.265
280.78	1.244
281.29	1.216
281.8	1.204
282.31	1.183
282.83	1.175
283.34	1.159
283.85	1.155
284.36	1.143
