Uv/Vis Spectrum: 1,4,5,8-Tetramethylnaphthalene
Formula: C14H16
CAS: 2717-39-7
Instrument: unknown
Origin: INSTITUTE OF ENERGY PROBLEMS OF CHEMICAL PHYSICS, RAS
Wavelength (nm)	Logarithm epsilon
313.45	3.679
313.66	3.671
313.87	3.663
314.08	3.655
314.33	3.648
314.54	3.64
314.75	3.632
314.96	3.625
315.18	3.616
315.39	3.609
315.6	3.602
315.81	3.594
316.02	3.586
316.23	3.579
316.44	3.57
316.61	3.562
316.82	3.555
317.03	3.546
317.19	3.538
317.41	3.531
317.57	3.522
317.83	3.515
318.04	3.508
318.29	3.501
318.5	3.494
318.75	3.487
319.05	3.48
319.34	3.474
319.68	3.47
320.01	3.466
320.35	3.461
320.65	3.455
320.94	3.449
321.15	3.442
321.4	3.434
321.57	3.426
321.82	3.419
321.99	3.41
322.16	3.402
322.37	3.394
322.54	3.385
322.71	3.377
322.88	3.368
323.04	3.36
323.17	3.352
323.34	3.343
323.46	3.335
323.59	3.327
323.76	3.318
323.88	3.31
324.01	3.302
324.14	3.293
324.31	3.285
324.43	3.275
324.56	3.266
324.68	3.258
324.81	3.249
324.94	3.24
325.06	3.23
325.19	3.221
325.27	3.212
325.44	3.203
325.61	3.195
325.74	3.187
325.95	3.178
326.2	3.172
326.49	3.167
326.83	3.164
327.17	3.159
327.5	3.155
327.84	3.15
328.18	3.146
328.51	3.142
328.89	3.138
329.23	3.134
329.57	3.129
329.86	3.124
330.53	3.105
330.58	3.104
330.62	3.103
330.66	3.103
330.7	3.102
330.74	3.101
330.79	3.101
330.83	3.1
330.87	3.099
330.91	3.099
330.95	3.098
331	3.096
331.04	3.096
331.08	3.092
331.12	3.092
331.16	3.091
331.21	3.09
331.25	3.087
331.29	3.086
331.33	3.085
331.37	3.082
331.42	3.082
331.46	3.08
331.5	3.078
331.54	3.077
331.58	3.074
331.63	3.073
331.67	3.072
331.71	3.068
331.75	3.067
331.8	3.065
331.84	3.063
331.88	3.062
331.92	3.058
331.96	3.058
332.01	3.056
332.05	3.053
332.09	3.051
332.13	3.048
332.17	3.047
332.22	3.044
332.26	3.042
332.3	3.041
332.34	3.039
332.38	3.037
332.43	3.036
332.47	3.033
332.51	3.033
332.55	3.033
332.59	3.033
332.64	3.033
332.68	3.033
332.72	3.034
332.76	3.037
332.81	3.038
332.85	3.042
332.9	3.045
332.93	3.05
332.97	3.055
333.02	3.061
333.04	3.065
333.07	3.071
333.12	3.084
333.15	3.093
333.2	3.106
333.23	3.118
333.26	3.129
333.31	3.15
333.36	3.173
333.44	3.201
333.48	3.216
333.52	3.225
333.56	3.237
333.6	3.246
333.65	3.252
333.69	3.261
333.73	3.263
333.77	3.267
333.81	3.271
333.86	3.272
333.9	3.275
333.94	3.276
333.98	3.278
334.03	3.278
334.07	3.278
334.11	3.278
334.15	3.278
334.19	3.275
334.24	3.272
334.28	3.268
334.32	3.267
334.36	3.262
334.4	3.257
334.45	3.252
334.49	3.245
334.53	3.238
334.57	3.233
334.61	3.228
334.66	3.222
334.7	3.216
334.74	3.211
334.78	3.203
334.82	3.197
334.87	3.189
334.91	3.182
334.95	3.179
334.99	3.173
335.04	3.168
335.08	3.162
335.12	3.156
335.16	3.148
335.2	3.143
335.25	3.136
335.29	3.131
335.33	3.124
335.37	3.118
335.41	3.112
335.46	3.106
335.5	3.098
335.54	3.088
335.58	3.083
335.62	3.074
335.67	3.067
335.71	3.062
335.75	3.057
335.83	3.05
335.9	3.042
336	3.031
336.1	3.021
336.23	3.008
336.29	2.999
336.34	2.993
336.38	2.988
336.42	2.982
336.47	2.976
336.51	2.972
336.55	2.968
336.59	2.963
336.63	2.958
336.68	2.951
336.72	2.944
336.76	2.938
336.8	2.932
336.84	2.923
