Uv/Vis Spectrum: 2,8-dithiadispiro[3.1.3.1]decane
Formula: C8H12S2
CAS: 27211-80-9
Melting point: 49
Instrument: Zeiss PMQ II
Origin: INSTITUTE OF ENERGY PROBLEMS OF CHEMICAL PHYSICS, RAS
Wavelength (nm)	Logarithm epsilon
209.028	2.241
210.028	2.216
211.028	2.19
212.028	2.163
213.028	2.136
214.028	2.11
215.028	2.084
216.028	2.059
217.028	2.035
218.028	2.012
219.028	1.99
220.028	1.969
221.028	1.95
222.028	1.932
223.028	1.915
224.028	1.899
225.028	1.884
226.028	1.87
227.028	1.857
228.028	1.844
229.028	1.832
230.028	1.821
231.028	1.811
232.028	1.801
232.921	1.793
233.921	1.783
234.921	1.775
235.921	1.768
236.921	1.762
237.921	1.758
238.921	1.755
239.921	1.753
240.921	1.753
241.921	1.754
242.921	1.758
243.921	1.765
244.921	1.775
245.921	1.79
246.921	1.81
247.886	1.827
248.886	1.847
249.886	1.867
250.886	1.887
251.886	1.907
252.886	1.927
253.886	1.946
254.886	1.964
255.886	1.982
256.886	1.999
257.886	2.015
258.886	2.03
259.886	2.045
260.886	2.058
261.886	2.07
262.886	2.08
262.97	2.086
263.97	2.09
264.97	2.092
265.97	2.093
266.97	2.091
267.97	2.087
268.97	2.081
269.97	2.073
270.97	2.062
271.97	2.049
272.97	2.034
273.97	2.016
274.97	1.996
275.97	1.973
276.97	1.948
277.97	1.919
278.97	1.889
279.97	1.855
280.97	1.819
281.795	1.791
282.795	1.742
283.795	1.698
284.795	1.658
285.795	1.62
286.795	1.583
287.795	1.547
288.795	1.509
289.795	1.47
290.795	1.429
291.795	1.387
292.795	1.343
293.795	1.298
294.795	1.253
295.795	1.208
296.795	1.163
296.819	1.163
297.819	1.119
298.819	1.076
299.819	1.035
300.819	0.996
301.819	0.958
302.819	0.922
303.819	0.888
304.819	0.854
305.819	0.82
306.819	0.787
307.819	0.754
308.819	0.721
309.819	0.69
310.757	0.663
311.757	0.634
312.757	0.604
313.757	0.575
314.757	0.546
315.757	0.516
316.757	0.486
317.757	0.455
318.757	0.423
319.757	0.391
320.757	0.357
321.757	0.324
322.757	0.29
323.757	0.259
