Uv/Vis Spectrum: Benzoxazole
Formula: C7H5NO
CAS: 273-53-0
Melting point: 31
Boiling point: 182.5
Instrument: Beckman DU
Origin: INSTITUTE OF ENERGY PROBLEMS OF CHEMICAL PHYSICS, RAS
Wavelength (nm)	Logarithm epsilon
212.21	3.83245
213.637	3.8058
215.085	3.77943
216.82	3.7496
217.1	3.74586
217.393	3.74204
217.692	3.73809
217.692	3.73809
218.189	3.73855
218.7	3.73889
219.218	3.73915
219.218	3.73915
220.374	3.75843
221.32	3.77847
222.232	3.79818
223.286	3.8165
224.658	3.83235
224.658	3.83235
225.313	3.85064
226.363	3.86913
227.751	3.88535
229.422	3.89681
231.32	3.90103
231.32	3.90103
232.81	3.88639
234.083	3.86935
235.168	3.8504
236.09	3.83001
236.878	3.80867
237.556	3.78687
238.152	3.76507
238.152	3.76507
238.312	3.7635
238.485	3.76186
238.665	3.76008
238.665	3.76008
239.188	3.74143
239.695	3.72284
240.187	3.70428
240.665	3.68576
241.128	3.66728
241.578	3.64882
242.014	3.63037
242.439	3.61195
242.852	3.59353
243.254	3.57512
243.645	3.5567
244.026	3.53827
244.397	3.51984
244.76	3.50138
245.115	3.4829
245.462	3.46439
245.802	3.44584
246.135	3.42725
246.463	3.40862
246.785	3.38993
247.102	3.37119
247.415	3.35238
247.725	3.3335
248.032	3.31455
248.336	3.29552
248.639	3.2764
248.94	3.25719
249.24	3.23789
249.541	3.21848
249.842	3.19897
249.842	3.19897
250.413	3.17359
251.126	3.14688
252.41	3.12245
252.41	3.12245
254.339	3.13126
255.487	3.14714
256.384	3.16379
257.56	3.17494
257.56	3.17494
258.098	3.21963
258.26	3.21961
258.435	3.21959
258.569	3.20463
258.616	3.21957
259.009	3.21586
259.255	3.21827
259.255	3.21827
259.943	3.23826
260.536	3.25989
261.048	3.28249
261.496	3.30543
261.508	3.32479
261.511	3.32748
261.514	3.33003
261.517	3.33251
261.893	3.32804
262.255	3.34969
262.595	3.36973
262.595	3.36973
262.962	3.36969
263.336	3.36964
263.723	3.3696
263.723	3.3696
264.052	3.35375
264.551	3.33809
265.717	3.32586
265.717	3.32586
265.932	3.32675
266.146	3.32757
266.36	3.32825
266.36	3.32825
266.74	3.34984
267.123	3.3714
267.507	3.39293
267.893	3.41445
268.281	3.43596
268.669	3.45745
269.059	3.47894
269.449	3.50042
269.449	3.50042
269.613	3.50347
269.792	3.50646
269.977	3.50931
269.977	3.50931
270.645	3.49517
270.973	3.47259
271.16	3.44742
271.408	3.42551
271.408	3.42551
271.442	3.40591
271.462	3.38633
271.473	3.36676
271.479	3.34721
271.485	3.32767
271.496	3.30814
271.517	3.28862
271.553	3.2691
271.608	3.24958
271.688	3.23006
271.796	3.21054
271.939	3.19101
