Uv/Vis Spectrum: Benzofurazan
Formula: C6H4N2O
CAS: 273-09-6
Instrument: Specord UV-VIS
Origin: INSTITUTE OF ENERGY PROBLEMS OF CHEMICAL PHYSICS, RAS
Wavelength (nm)	Logarithm epsilon
199.11	3.356
199.11	3.341
199.11	3.326
199.18	3.371
199.25	3.386
199.31	3.401
199.38	3.416
199.45	3.431
199.52	3.447
199.59	3.462
199.72	3.492
199.72	3.477
199.79	3.507
199.86	3.522
199.99	3.537
200.06	3.552
200.13	3.567
200.34	3.582
200.47	3.598
200.61	3.613
200.68	3.628
200.82	3.643
200.96	3.658
201.09	3.673
201.23	3.688
201.44	3.703
201.58	3.718
201.79	3.734
202	3.749
202.2	3.764
202.48	3.777
202.7	3.792
202.98	3.806
203.19	3.819
203.54	3.833
203.75	3.846
204.11	3.859
204.39	3.873
204.75	3.885
205.18	3.896
205.54	3.91
206.12	3.915
206.78	3.915
207.36	3.91
207.88	3.9
208.84	3.881
209.29	3.871
209.74	3.861
210.19	3.851
210.72	3.843
211.18	3.833
211.56	3.821
212.02	3.811
212.48	3.801
212.94	3.791
213.33	3.779
213.72	3.767
214.19	3.757
214.66	3.745
215.13	3.735
215.53	3.723
215.93	3.712
216.41	3.7
216.81	3.688
217.21	3.676
217.61	3.665
218.02	3.653
218.51	3.641
218.92	3.628
219.33	3.616
219.74	3.604
220.23	3.593
220.65	3.581
220.98	3.567
221.4	3.556
221.82	3.544
222.16	3.53
222.66	3.519
223.09	3.507
223.43	3.494
223.94	3.482
224.28	3.468
224.71	3.457
225.15	3.445
225.41	3.431
225.84	3.418
226.28	3.405
226.72	3.391
226.98	3.378
227.42	3.364
227.77	3.351
228.13	3.337
228.49	3.324
228.84	3.311
229.29	3.297
229.74	3.284
230.01	3.269
230.37	3.255
230.74	3.242
231.01	3.228
231.38	3.215
231.65	3.2
232.02	3.186
232.39	3.173
232.76	3.16
233.03	3.146
233.5	3.134
233.87	3.121
234.34	3.107
234.71	3.094
235.09	3.081
235.56	3.067
236.04	3.054
236.52	3.04
236.9	3.027
237.48	3.015
237.96	3.003
238.54	2.993
239.22	2.983
240.11	2.987
240.8	2.995
241.39	3.007
242.09	3.017
242.79	3.025
243.6	3.034
244.42	3.04
244.93	3.054
245.13	3.069
245.65	3.082
246.06	3.111
246.16	3.126
246.27	3.156
246.47	3.171
246.99	3.183
247.73	3.193
248.25	3.205
248.88	3.215
249.41	3.227
249.95	3.238
250.59	3.25
250.91	3.264
251.13	3.279
251.34	3.294
251.45	3.309
251.88	3.322
252.32	3.336
253.3	3.337
253.52	3.353
253.96	3.366
254.4	3.379
254.84	3.393
255.07	3.408
255.4	3.423
255.96	3.435
256.63	3.447
257.42	3.455
258.22	3.463
258.9	3.473
259.71	3.483
260.05	3.499
260.4	3.514
260.63	3.529
260.98	3.544
261.33	3.557
261.56	3.572
261.91	3.588
262.62	3.598
263.45	3.589
264.16	3.577
265	3.588
265.72	3.599
266.2	3.613
266.81	3.624
267.54	3.635
268.52	3.64
269.51	3.631
270.26	3.641
270.63	3.656
271.01	3.671
271.26	3.687
271.51	3.702
271.89	3.717
272.27	3.73
273.03	3.74
274.18	3.739
274.44	3.723
274.82	3.71
274.95	3.695
275.34	3.682
276.51	3.678
277.43	3.687
278.48	3.692
279.55	3.685
280.49	3.675
281.29	3.663
281.97	3.65
282.79	3.661
282.93	3.676
283.34	3.692
284.02	3.703
284.58	3.717
284.99	3.73
285.69	3.742
286.95	3.745
287.51	3.732
287.93	3.718
288.08	3.703
288.22	3.688
288.5	3.673
288.93	3.658
289.22	3.643
290.08	3.631
290.94	3.621
292.1	3.613
293.27	3.618
294.6	3.621
295.94	3.621
297.29	3.623
298.66	3.623
300.04	3.623
301.43	3.621
302.83	3.619
304.09	3.614
305.52	3.609
306.8	3.601
307.93	3.591
309.06	3.582
309.88	3.571
310.71	3.559
311.7	3.547
312.7	3.535
313.37	3.522
314.21	3.509
314.71	3.495
315.56	3.482
315.9	3.467
316.59	3.453
318.83	3.401
319	3.4
319.18	3.398
319.35	3.394
319.87	3.378
320.4	3.361
320.93	3.342
321.45	3.331
321.98	3.314
322.52	3.297
323.05	3.272
323.59	3.254
324.12	3.222
324.66	3.201
325.2	3.175
325.75	3.141
326.29	3.123
326.84	3.082
327.39	3.054
327.94	3.012
328.49	2.968
329.04	2.92
329.6	2.871
330.16	2.827
330.72	2.792
331.28	2.733
331.84	2.671
332.41	2.612
332.97	2.525
333.54	2.498
334.11	2.443
334.69	2.349
335.26	2.293
335.84	2.238
336.42	2.152
337	2.09
337.58	2.03
338.17	1.986
338.75	1.926
339.34	1.855
339.93	1.812
