Uv/Vis Spectrum: 5-(phenylmethylene)-2,4,6(1H,3H,5H)-pyrimidinetrione
Formula: C11H8N2O3
CAS: 27402-47-7
Melting point: 252
Instrument: SF-4A
Origin: INSTITUTE OF ENERGY PROBLEMS OF CHEMICAL PHYSICS, RAS
Wavelength (nm)	Logarithm epsilon
228.327	3.977
229.827	4.004
231.327	4.017
232.827	4.019
234.327	4.011
235.827	3.996
237.327	3.975
238.827	3.949
240.327	3.921
241.827	3.891
243.327	3.861
244.827	3.831
246.327	3.801
247.827	3.773
249.327	3.747
250.827	3.722
252.327	3.7
253.827	3.679
255.327	3.661
256.827	3.645
258.327	3.631
259.827	3.619
261.327	3.609
262.827	3.601
264.327	3.596
265.827	3.592
267.327	3.59
268.827	3.591
270.327	3.593
271.827	3.598
273.327	3.606
274.827	3.615
276.327	3.627
277.827	3.639
279.249	3.652
280.749	3.666
282.249	3.681
283.749	3.699
285.249	3.717
286.749	3.738
288.249	3.759
289.749	3.78
291.249	3.803
292.749	3.826
294.249	3.849
295.749	3.872
297.249	3.894
298.749	3.917
300.249	3.939
301.749	3.961
303.249	3.982
304.749	4.003
306.249	4.023
307.749	4.043
309.249	4.062
310.749	4.08
312.249	4.098
313.749	4.115
314.867	4.126
316.367	4.144
317.867	4.16
319.367	4.175
320.867	4.189
322.367	4.201
323.867	4.211
325.367	4.221
326.867	4.228
328.367	4.235
329.867	4.239
331.367	4.242
332.867	4.244
334.367	4.243
335.867	4.242
337.367	4.238
338.867	4.233
340.367	4.226
341.867	4.218
343.367	4.208
344.867	4.196
346.367	4.183
347.867	4.166
349.367	4.147
350.867	4.124
352.502	4.103
354.002	4.081
355.502	4.057
357.002	4.033
358.502	4.007
360.002	3.98
361.502	3.951
363.002	3.92
364.502	3.887
366.002	3.852
367.502	3.814
369.002	3.773
369.129	3.772
370.629	3.726
372.129	3.682
373.629	3.64
375.129	3.602
376.629	3.564
378.129	3.528
379.629	3.493
381.129	3.457
382.629	3.42
384.129	3.382
385.629	3.343
387.129	3.302
388.629	3.259
