Uv/Vis Spectrum: Imidazo[1,2-a]pyridine
Formula: C7H6N2
CAS: 274-76-0
Boiling point: 70/ 0.1 mm
Instrument: Beckman 5270
Origin: INSTITUTE OF ENERGY PROBLEMS OF CHEMICAL PHYSICS, RAS
Wavelength (nm)	Logarithm epsilon
206.3	3.992
206.52	3.993
206.74	3.996
206.95	3.998
207.17	4
207.39	4.003
207.6	4.008
208.04	4.028
208.47	4.039
208.91	4.051
209.34	4.062
209.77	4.082
210.21	4.094
210.64	4.108
211.07	4.128
211.51	4.136
211.94	4.147
212.38	4.157
212.81	4.173
213.24	4.186
213.68	4.196
214.11	4.211
214.55	4.219
214.98	4.229
215.41	4.244
215.85	4.252
216.28	4.259
216.72	4.269
217.15	4.274
217.58	4.28
218.02	4.287
218.45	4.293
218.88	4.302
219.32	4.309
219.75	4.316
220.19	4.329
220.62	4.337
221.05	4.34
221.49	4.337
221.92	4.326
222.36	4.317
222.79	4.296
223.22	4.277
223.66	4.269
224.09	4.265
224.53	4.262
224.96	4.261
225.39	4.26
225.83	4.26
226.26	4.254
226.69	4.236
227.13	4.218
227.56	4.191
228	4.15
228.43	4.118
228.86	4.072
229.3	4.016
229.73	3.961
230.17	3.906
230.6	3.832
231.03	3.801
231.47	3.74
231.9	3.713
232.34	3.679
232.77	3.641
233.2	3.61
233.64	3.588
234.07	3.573
234.51	3.554
234.94	3.537
235.37	3.533
235.81	3.525
238.84	3.493
240.15	3.465
241.23	3.429
242.53	3.389
243.62	3.346
244.7	3.291
245.57	3.228
246.87	3.164
248.39	3.1
250.34	3.076
252.29	3.076
254.03	3.122
255.77	3.164
257.5	3.201
259.02	3.244
260.76	3.276
262.27	3.313
263.79	3.353
265.31	3.384
266.61	3.418
268.35	3.434
270.3	3.45
272.04	3.465
273.77	3.479
275.29	3.503
276.81	3.529
278.76	3.537
280.28	3.516
281.8	3.489
283.75	3.489
285.71	3.493
287.44	3.512
289.39	3.525
291.13	3.537
292.86	3.55
294.82	3.558
296.77	3.558
298.72	3.558
300.67	3.554
302.63	3.542
304.36	3.52
306.1	3.503
307.83	3.479
309.57	3.455
311.09	3.423
312.39	3.389
313.91	3.353
315.21	3.313
316.51	3.261
318.03	3.21
319.55	3.154
321.07	3.1
322.8	3.039
324.32	2.967
326.06	2.882
