Uv/Vis Spectrum: Indolizine
Formula: C8H7N
CAS: 274-40-8
Melting point: 75
Boiling point: 205
Instrument: n.i.g.
Origin: INSTITUTE OF ENERGY PROBLEMS OF CHEMICAL PHYSICS, RAS
Wavelength (nm)	Logarithm epsilon
208.05	4.323
208.31	4.32
208.56	4.32
208.82	4.317
209.08	4.315
209.33	4.315
209.59	4.312
209.84	4.31
210.1	4.31
210.36	4.307
210.61	4.304
210.87	4.304
211.13	4.302
211.38	4.299
211.65	4.294
212.14	4.286
213.22	4.275
214.42	4.258
215.23	4.239
216.25	4.183
217.28	4.075
218.3	3.944
219.17	3.894
220.35	3.852
221.38	3.836
223.43	3.815
224.45	3.812
225.48	3.812
226.5	3.823
228.56	3.849
229.58	3.868
230.61	3.904
232.21	3.984
232.94	4.013
234.07	4.054
234.88	4.082
235.73	4.11
236.76	4.144
237.78	4.186
238.81	4.22
239.83	4.249
240.86	4.294
244.53	4.423
249.06	4.549
250.09	4.562
252.14	4.588
253.16	4.596
254.19	4.607
255.21	4.609
256.24	4.609
257.51	4.605
258.42	4.598
259.17	4.59
259.86	4.581
260.34	4.575
260.6	4.573
260.85	4.57
261.11	4.567
261.36	4.565
261.62	4.562
261.81	4.558
262.22	4.553
262.79	4.544
263.41	4.531
264.44	4.512
265.47	4.491
266.53	4.464
267.52	4.438
268.54	4.407
269.57	4.375
270.59	4.352
271.62	4.328
272.64	4.296
273.67	4.267
275.72	4.217
276.74	4.194
277.77	4.173
278.79	4.154
279.82	4.139
280.84	4.115
281.87	4.091
282.89	4.073
283.92	4.044
284.95	4.015
285.97	3.978
287	3.936
288.02	3.899
289.05	3.823
290.07	3.775
291.1	3.749
292.12	3.736
293.15	3.72
294	3.704
295.2	3.681
296.22	3.66
297.25	3.644
298.27	3.626
299.3	3.607
300.32	3.591
301.35	3.57
302.38	3.544
303.4	3.476
304.43	3.433
305.45	3.386
306.48	3.339
307.5	3.297
308.53	3.26
309.55	3.247
310.58	3.239
311.6	3.234
312.63	3.231
313.65	3.231
315.7	3.231
316.77	3.235
317.73	3.24
318.78	3.247
320.83	3.257
321.86	3.26
322.88	3.265
323.84	3.277
324.93	3.297
326.38	3.322
328.01	3.339
329.05	3.344
329.99	3.348
331.08	3.355
332.11	3.36
334.16	3.37
335.25	3.375
336.43	3.381
337.49	3.388
338.53	3.394
339.28	3.399
341.34	3.415
342.36	3.423
343.39	3.428
344.28	3.432
345.44	3.439
346.46	3.444
347.35	3.448
348.51	3.452
349.54	3.449
350.56	3.444
351.59	3.439
352.61	3.436
353.49	3.432
354.66	3.426
355.73	3.422
356.7	3.416
357.74	3.41
358.57	3.404
359.91	3.398
360.82	3.397
361.84	3.402
363.38	3.409
364.92	3.415
365.94	3.415
366.97	3.407
367.94	3.388
368.99	3.361
370.04	3.323
371.13	3.294
371.96	3.268
373.12	3.231
374.14	3.202
375.17	3.181
376.2	3.16
377.22	3.141
378.25	3.12
378.78	3.115
379.27	3.112
379.83	3.116
380.52	3.126
381.32	3.136
382.48	3.148
384.08	3.157
384.86	3.161
385.42	3.162
385.87	3.161
386.19	3.157
386.45	3.152
