Uv/Vis Spectrum: Azulene
Formula: C10H8
CAS: 275-51-4
Melting point: 99
Boiling point: 270; 125(10)
Instrument: n.i.g.
Origin: INSTITUTE OF ENERGY PROBLEMS OF CHEMICAL PHYSICS, RAS
Wavelength (nm)	Logarithm epsilon
226.701	4.17029
227.084	4.17392
227.484	4.17747
227.893	4.18085
231.173	4.20853
231.484	4.21059
231.812	4.21265
232.149	4.21471
236.884	4.22833
237.077	4.22788
237.269	4.22726
237.463	4.22655
241.366	4.185
242.138	4.17516
242.715	4.17066
243.594	4.16765
243.594	4.16765
244.53	4.15003
245.223	4.14017
246.265	4.12964
246.685	4.12977
247.865	4.13351
248.879	4.13911
250.595	4.15137
256.223	4.26488
256.449	4.26965
256.693	4.27444
256.945	4.27922
258.742	4.34928
258.752	4.34056
258.839	4.35358
259.124	4.35715
260.505	4.42072
260.754	4.42695
261.003	4.43302
261.253	4.43899
262.282	4.49225
262.529	4.49927
262.776	4.50612
263.024	4.51287
264.054	4.56574
264.297	4.57404
264.54	4.58225
264.784	4.59028
265.652	4.6333
265.824	4.63961
265.997	4.64584
266.171	4.65189
267.828	4.69907
267.864	4.70379
267.916	4.70851
267.978	4.71324
270.269	4.75277
271.042	4.75889
271.633	4.76051
272.809	4.75943
272.809	4.75943
272.867	4.75671
272.941	4.75399
273.024	4.75127
275.115	4.71544
276.08	4.70686
276.799	4.69803
277.195	4.68353
277.195	4.68353
277.578	4.68364
277.97	4.68376
278.378	4.68389
278.378	4.68389
278.442	4.6792
278.522	4.67452
278.611	4.66984
280.481	4.64414
280.536	4.64218
280.609	4.64014
280.69	4.63793
281.784	4.60376
281.807	4.5958
281.83	4.58768
281.854	4.57946
281.961	4.54302
282.02	4.53979
282.096	4.53638
282.182	4.53289
282.56	4.48203
282.689	4.47736
282.827	4.4727
282.983	4.46804
283.574	4.40939
283.594	4.40272
283.613	4.39595
283.634	4.38902
283.996	4.3303
284.032	4.33502
284.085	4.33974
284.146	4.34446
284.777	4.25916
284.789	4.25523
284.801	4.25121
284.813	4.24702
284.979	4.1902
284.994	4.18499
285.01	4.17961
285.026	4.17413
285.6	4.12137
285.62	4.11469
285.64	4.10793
285.66	4.10099
286.208	4.04429
286.231	4.03634
286.255	4.02821
286.279	4.02
286.841	3.97154
286.86	3.96487
286.88	3.9581
286.9	3.95117
287.031	3.9065
287.243	3.89911
287.456	3.89173
287.638	3.82942
287.666	3.82002
287.669	3.88434
287.693	3.81062
287.721	3.80121
288.724	3.7325
288.859	3.72586
289.003	3.71913
289.165	3.71224
290.55	3.64364
290.608	3.62915
290.735	3.62278
291.042	3.61909
292.367	3.57086
292.697	3.56626
293.045	3.56166
293.401	3.55706
295.677	3.52325
295.732	3.52129
295.805	3.51925
295.886	3.51704
300.243	3.45132
300.275	3.44565
300.393	3.44253
300.698	3.4393
301.615	3.38703
301.678	3.38233
301.759	3.37755
301.848	3.37259
303.097	3.29807
303.117	3.29139
303.137	3.28463
303.157	3.27769
304.086	3.22111
304.106	3.21444
304.126	3.20768
304.146	3.20074
305.522	3.14822
305.567	3.14241
305.777	3.1383
306.332	3.13239
308.335	3.12673
308.588	3.13179
308.841	3.13667
309.095	3.14147
310.954	3.18479
311.208	3.18958
311.461	3.19436
311.715	3.19915
313.957	3.24259
314.062	3.24603
314.177	3.24931
314.31	3.2525
316.767	3.30032
316.946	3.30508
317.133	3.30984
317.337	3.31461
319.943	3.36405
320.057	3.36828
320.188	3.37234
320.327	3.37632
321.923	3.43172
321.993	3.43398
322.063	3.43606
322.134	3.43806
324.191	3.47909
324.378	3.4806
324.565	3.48194
324.752	3.48319
327.502	3.49658
327.82	3.49617
328.156	3.49559
328.5	3.49493
330.999	3.5157
331.256	3.51929
331.513	3.5228
331.771	3.52613
334.039	3.5735
334.266	3.57828
334.509	3.58306
334.761	3.58784
336.615	3.63313
337.25	3.63881
337.892	3.6445
338.552	3.65019
340.957	3.65093
341.161	3.64629
341.366	3.64165
341.57	3.637
343.156	3.57827
343.171	3.57306
343.187	3.56768
343.203	3.56221
343.322	3.52146
343.469	3.5108
343.625	3.49996
343.799	3.48905
344.718	3.44894
344.734	3.44346
344.75	3.43797
344.766	3.43248
345.647	3.39236
345.714	3.37511
345.844	3.36773
346.151	3.36388
346.257	3.32744
346.277	3.32077
346.297	3.31401
346.317	3.30707
346.852	3.25468
346.996	3.24873
347.078	3.17749
347.097	3.17082
347.117	3.16405
347.137	3.15712
347.156	3.2426
347.315	3.09638
347.326	3.23639
347.472	3.08572
347.647	3.0749
347.83	3.06399
348.317	2.89746
348.39	3.00298
348.406	2.99777
348.409	2.90571
348.421	2.99239
348.437	2.98692
348.509	2.91387
348.627	2.92187
348.637	2.78775
348.668	2.84266
348.707	2.84619
348.764	2.84963
348.775	2.78034
348.829	2.85291
348.921	2.77293
349.065	2.64159
349.073	2.63885
349.081	2.63611
349.084	2.76553
349.089	2.63336
349.28	2.69853
349.547	2.69017
349.865	2.68139
350.177	2.66625
350.475	2.69497
350.483	2.69223
350.491	2.68949
350.499	2.68674
351.182	2.72774
351.285	2.73197
351.398	2.73603
351.528	2.74001
352.58	2.78504
352.723	2.7954
353.021	2.80179
353.731	2.80971
353.755	2.80148
353.88	2.79826
354.015	2.79488
354.166	2.79141
355.069	2.75718
355.096	2.74777
355.123	2.73837
355.151	2.72896
355.676	2.6801
355.819	2.67425
355.979	2.66831
356.148	2.66221
356.32	2.60343
356.392	2.596
356.48	2.58858
356.576	2.58116
356.952	2.51813
357.244	2.50958
357.537	2.50094
357.83	2.49212
357.979	2.44119
358.05	2.43376
358.138	2.42633
358.235	2.41891
358.982	2.37247
358.993	2.36854
359.005	2.36452
359.017	2.36032
