Uv/Vis Spectrum: Cyclopent[4,5]azepino[2,1,7-cd]pyrrolizine
Formula: C14H9N
CAS: 27884-38-4
Melting point: 198-199
Instrument: unknown
Origin: INSTITUTE OF ENERGY PROBLEMS OF CHEMICAL PHYSICS, RAS
Wavelength (nm)	Logarithm epsilon
243.39	3.858
244.06	3.865
244.74	3.865
245.42	3.872
246.1	3.872
246.77	3.872
247.45	3.879
248.13	3.879
248.81	3.885
249.48	3.885
250.16	3.892
250.84	3.892
251.52	3.899
252.19	3.899
252.87	3.906
253.55	3.906
254.23	3.919
255.58	3.933
256.94	3.953
258.29	3.98
259.65	4.007
261	4.027
262.36	4.061
263.71	4.095
265.07	4.135
266.42	4.169
267.78	4.21
268.97	4.232
270.49	4.25
271.9	4.267
273.2	4.277
274.55	4.284
275.91	4.291
277.26	4.297
278.73	4.305
279.97	4.311
281.33	4.318
282.68	4.318
284.04	4.324
285.39	4.324
286.75	4.338
288.1	4.351
289.46	4.365
290.81	4.392
292.17	4.412
293.52	4.439
294.88	4.433
296.23	4.405
297.59	4.365
298.94	4.351
300.29	4.351
301.65	4.358
303	4.365
304.36	4.378
305.71	4.385
307.02	4.385
308.73	4.384
309.71	4.377
311.13	4.372
312.49	4.358
313.84	4.351
315.2	4.351
316.55	4.351
317.91	4.358
319.26	4.372
320.62	4.385
321.97	4.419
323.33	4.446
324.68	4.48
326.04	4.507
327.39	4.541
328.75	4.574
330.1	4.595
331.46	4.588
332.81	4.581
334.17	4.581
335.52	4.601
336.88	4.628
338.23	4.676
339.59	4.73
340.94	4.743
342.3	4.743
343.65	4.73
344.2	4.699
344.73	4.594
345.44	4.418
346.36	4.291
347.72	4.115
349.07	3.987
350.43	3.892
351.78	3.743
353.14	3.656
354.49	3.608
355.17	3.595
355.85	3.588
356.41	3.578
357.2	3.568
357.88	3.561
358.56	3.554
359.23	3.541
359.91	3.534
360.47	3.524
361.27	3.514
361.94	3.507
363.67	3.492
365.8	3.481
368.04	3.48
370.07	3.487
372.11	3.493
374.14	3.507
376.17	3.527
378.2	3.554
380.24	3.595
382.27	3.622
384.3	3.656
386.33	3.669
388.37	3.676
390.4	3.683
392.43	3.676
394.46	3.662
396.5	3.649
398.53	3.649
400.56	3.662
402.59	3.703
404.63	3.743
405.44	3.756
406.66	3.757
407.94	3.749
408.69	3.73
410.72	3.683
412.76	3.669
414.83	3.663
416.82	3.662
418.8	3.66
420.88	3.649
422.76	3.632
424.95	3.608
426.98	3.581
429.01	3.548
431.05	3.507
433.08	3.473
435.11	3.453
437.16	3.45
438	3.462
439.18	3.466
441.21	3.46
443.24	3.365
445.27	3.277
447.31	3.189
449.31	3.111
451.18	3.032
453.05	2.957
455.2	2.878
457.11	2.815
459.46	2.731
461.53	2.663
463.7	2.599
465.6	2.548
467.63	2.5
469.23	2.458
471.69	2.406
473.15	2.381
475.28	2.343
477.3	2.321
479.82	2.304
481.86	2.298
483.71	2.293
485.92	2.291
487.75	2.291
489.99	2.298
492.02	2.304
494.04	2.314
496.08	2.325
497.6	2.335
500.21	2.358
502.18	2.372
504.21	2.379
506.25	2.386
508.28	2.393
510.31	2.399
512.34	2.406
514.38	2.413
516.35	2.415
518.44	2.413
520.47	2.406
522.52	2.396
524.54	2.386
526.57	2.379
528.6	2.372
530.6	2.368
532.67	2.365
534.75	2.367
536.73	2.372
538.76	2.379
540.8	2.392
542.82	2.407
544.86	2.413
546.89	2.413
548.93	2.406
550.96	2.399
553.03	2.389
555.05	2.376
557.06	2.365
558.96	2.358
561.12	2.352
562.88	2.35
565.19	2.345
567.22	2.331
569.17	2.312
571.28	2.291
573.32	2.271
575.35	2.264
577.38	2.257
579.41	2.257
581.45	2.264
583.48	2.271
585.51	2.298
587.54	2.318
589.57	2.325
591.61	2.318
593.64	2.291
595.67	2.257
597.7	2.217
599.74	2.176
601.77	2.136
603.8	2.095
605.83	2.061
607.87	2.027
609.82	1.998
611.94	1.967
613.96	1.946
616	1.919
618.03	1.892
620.06	1.865
621.92	1.844
624.13	1.825
626.01	1.809
628.19	1.791
630.09	1.777
632.26	1.764
634.29	1.75
636.3	1.737
638.35	1.723
640.39	1.717
642.42	1.717
644.45	1.717
646.48	1.723
648.51	1.737
650.55	1.75
652.58	1.771
654.61	1.778
656.64	1.784
658.68	1.771
660.71	1.75
662.74	1.717
664.77	1.649
666.81	1.609
668.84	1.528
670.87	1.474
