Uv/Vis Spectrum: Thiourea, tetramethyl-
Formula: C5H12N2S
CAS: 2782-91-4
Melting point: 46.3
Boiling point: 332; 190/ 16 mm
Instrument: n.i.g.
Origin: INSTITUTE OF ENERGY PROBLEMS OF CHEMICAL PHYSICS, RAS
Wavelength (nm)	Logarithm epsilon
218.97	4.151
219.21	4.148
219.59	4.142
220	4.135
220.51	4.126
221.03	4.117
221.54	4.108
222.09	4.095
222.56	4.083
223.08	4.068
223.55	4.056
224.06	4.043
224.54	4.03
225.12	4.018
225.63	4.008
226.15	3.996
226.67	3.983
227.22	3.969
227.69	3.959
228.21	3.946
228.72	3.932
229.3	3.918
229.79	3.905
230.26	3.895
230.77	3.881
231.38	3.865
231.79	3.853
232.31	3.838
232.82	3.821
233.33	3.804
233.9	3.787
234.36	3.773
234.96	3.759
235.38	3.752
235.9	3.746
236.41	3.742
236.92	3.738
237.44	3.736
237.95	3.736
238.46	3.736
238.97	3.736
239.49	3.738
240	3.74
240.51	3.742
241.03	3.744
241.54	3.748
242.05	3.752
242.56	3.758
243.08	3.764
243.59	3.771
244.1	3.777
244.62	3.784
245.13	3.792
245.64	3.799
246.15	3.807
246.67	3.816
247.18	3.831
247.69	3.844
248.21	3.863
248.48	3.878
248.72	3.896
248.94	3.918
249.1	3.932
249.43	3.954
249.8	3.968
250.26	3.982
250.77	3.992
251.28	4.002
251.79	4.009
252.31	4.017
252.82	4.027
253.33	4.034
253.85	4.041
254.36	4.049
254.87	4.055
255.38	4.063
255.89	4.071
256.48	4.078
256.92	4.085
257.44	4.094
257.95	4.101
258.46	4.107
258.97	4.113
259.49	4.122
260	4.13
260.51	4.136
261.03	4.142
261.54	4.15
262.04	4.157
262.56	4.164
263.08	4.168
263.59	4.173
264.1	4.178
264.62	4.183
265.13	4.187
265.64	4.194
266.15	4.198
266.67	4.202
267.18	4.206
267.69	4.209
268.21	4.213
268.72	4.217
269.23	4.22
269.74	4.223
270.26	4.225
270.77	4.229
271.28	4.231
271.79	4.233
272.31	4.234
272.82	4.236
273.33	4.237
273.85	4.238
274.36	4.24
274.87	4.24
275.38	4.241
275.9	4.242
276.41	4.242
276.92	4.242
277.44	4.241
277.95	4.241
278.46	4.24
278.97	4.24
279.49	4.238
280	4.237
280.51	4.235
281.03	4.235
281.54	4.233
282.05	4.23
282.56	4.228
283.08	4.227
283.59	4.223
284.1	4.22
284.62	4.218
285.13	4.214
285.64	4.211
286.15	4.207
286.67	4.204
287.18	4.2
287.69	4.197
288.21	4.193
288.72	4.19
289.23	4.186
289.74	4.181
290.26	4.177
290.77	4.173
291.28	4.168
291.79	4.163
292.31	4.157
292.82	4.155
293.33	4.15
293.85	4.144
294.36	4.139
294.87	4.132
295.38	4.124
295.9	4.117
296.41	4.112
296.92	4.106
297.44	4.098
297.95	4.088
298.46	4.079
298.97	4.072
299.49	4.065
300	4.055
300.51	4.046
301.03	4.035
301.54	4.026
302.05	4.021
302.56	4.009
303.08	3.999
303.59	3.988
304.1	3.977
304.62	3.965
305.13	3.959
305.64	3.948
306.15	3.939
306.67	3.926
307.18	3.91
307.69	3.903
308.21	3.896
308.72	3.883
309.23	3.87
309.74	3.858
310.26	3.847
310.77	3.831
311.28	3.826
311.79	3.813
312.31	3.797
312.82	3.784
313.33	3.771
313.85	3.756
314.36	3.742
314.87	3.732
315.38	3.72
315.9	3.707
316.41	3.691
316.92	3.673
317.44	3.658
317.95	3.643
318.46	3.631
318.97	3.615
319.49	3.606
320	3.59
320.51	3.572
321.03	3.56
321.54	3.541
322.05	3.525
322.56	3.508
323.08	3.487
323.59	3.472
324.1	3.457
324.62	3.445
325.13	3.425
325.64	3.408
326.15	3.39
326.67	3.372
327.18	3.352
327.69	3.332
328.21	3.311
328.72	3.294
329.23	3.277
329.74	3.253
330.26	3.234
330.77	3.214
331.28	3.2
331.79	3.186
332.31	3.164
332.82	3.14
333.33	3.115
333.76	3.101
334.36	3.08
334.87	3.061
335.38	3.041
335.99	3.014
