Uv/Vis Spectrum: 5-(2,4-cyclopentadien-1-ylidene)-2,3-diphenyl-1,3-cyclopentadiene
Formula: C22H16
CAS: 27949-38-8
Melting point: stable only in solutions
Instrument: Zeiss RPQ 20A/C
Origin: INSTITUTE OF ENERGY PROBLEMS OF CHEMICAL PHYSICS, RAS
Wavelength (nm)	Logarithm epsilon
227.001	3.683
229.001	3.686
231.001	3.698
233.001	3.716
235.001	3.739
237.001	3.764
239.001	3.789
241.001	3.815
243.001	3.839
245.001	3.86
247.001	3.879
249.001	3.894
251.001	3.904
253.001	3.911
255.001	3.913
257.001	3.911
259.001	3.905
261.001	3.894
263.001	3.881
265.001	3.863
267.001	3.843
268.246	3.83
269.321	3.817
271.321	3.798
273.321	3.783
275.321	3.773
277.321	3.768
279.321	3.768
281.321	3.773
283.321	3.783
285.321	3.794
287.321	3.805
289.255	3.814
291.255	3.823
293.255	3.833
295.255	3.842
297.255	3.848
299.255	3.853
301.255	3.855
303.255	3.854
305.255	3.851
307.655	3.846
309.655	3.841
311.655	3.837
313.655	3.836
315.655	3.837
317.655	3.84
319.655	3.846
321.655	3.855
323.655	3.868
325.655	3.884
327.655	3.905
329.655	3.93
331.655	3.958
333.655	3.989
335.256	4.017
337.256	4.048
339.256	4.079
341.256	4.107
343.256	4.134
345.256	4.159
347.256	4.181
349.256	4.202
351.256	4.22
353.256	4.235
355.256	4.248
357.256	4.258
359.256	4.265
361.256	4.269
363.256	4.27
365.256	4.269
367.256	4.264
369.256	4.255
371.256	4.243
373.256	4.228
375.256	4.208
377.256	4.185
379.256	4.157
381.256	4.124
383.256	4.086
385.256	4.042
387.424	3.971
389.424	3.899
391.424	3.823
393.424	3.735
395.424	3.63
397.424	3.509
399.424	3.374
401.424	3.229
403.424	3.084
405.424	2.952
406.163	2.913
408.163	2.832
410.163	2.772
412.163	2.729
414.163	2.7
416.163	2.68
418.163	2.669
420.163	2.662
422.163	2.659
424.163	2.658
426.163	2.659
428.163	2.66
430.163	2.663
432.163	2.666
433.815	2.675
435.815	2.679
437.815	2.683
439.815	2.686
441.815	2.69
443.815	2.693
445.815	2.696
447.815	2.698
449.815	2.701
451.815	2.703
453.815	2.704
455.815	2.706
457.815	2.707
459.815	2.708
461.815	2.708
463.815	2.709
465.815	2.708
467.815	2.708
469.815	2.707
471.815	2.706
473.815	2.705
475.815	2.704
477.815	2.702
479.815	2.7
481.815	2.697
483.815	2.694
485.815	2.691
487.815	2.688
489.815	2.685
491.815	2.681
493.815	2.677
495.815	2.672
497.815	2.668
499.815	2.663
501.815	2.658
503.815	2.653
505.815	2.647
507.815	2.641
509.815	2.635
511.815	2.629
513.815	2.623
515.815	2.616
517.815	2.609
519.815	2.602
521.815	2.595
523.815	2.587
525.815	2.579
527.815	2.571
529.815	2.563
531.815	2.555
533.815	2.546
535.815	2.538
537.815	2.529
539.815	2.52
541.815	2.51
543.815	2.501
545.815	2.491
547.815	2.481
549.815	2.471
551.815	2.46
553.815	2.45
555.815	2.439
557.815	2.428
559.815	2.417
561.815	2.405
563.815	2.394
565.815	2.382
567.815	2.37
569.815	2.358
571.815	2.345
573.815	2.332
575.815	2.319
577.815	2.306
579.815	2.293
581.815	2.279
583.815	2.265
585.815	2.251
587.815	2.237
589.815	2.222
591.815	2.207
593.815	2.192
595.815	2.177
597.815	2.162
599.815	2.146
601.815	2.13
603.815	2.114
605.815	2.098
607.815	2.081
609.815	2.064
611.815	2.047
613.815	2.03
615.815	2.013
617.815	1.996
619.815	1.978
621.815	1.961
623.815	1.943
625.815	1.925
627.815	1.907
629.815	1.889
631.815	1.871
633.815	1.853
635.815	1.835
637.815	1.817
639.815	1.8
641.815	1.782
643.815	1.764
645.815	1.747
647.815	1.73
649.815	1.713
651.815	1.696
653.815	1.68
655.815	1.665
657.815	1.649
