Uv/Vis Spectrum: 2-Amino-3-chloro-1,4-naphthoquinone
Formula: C10H6ClNO2
CAS: 2797-51-5
Melting point: 193
Instrument: SF-16
Origin: INSTITUTE OF ENERGY PROBLEMS OF CHEMICAL PHYSICS, RAS
Wavelength (nm)	Logarithm epsilon
202.15	4.048
202.69	4.048
203.23	4.054
203.77	4.054
204.3	4.059
204.84	4.059
205.38	4.064
205.92	4.064
206.45	4.07
206.99	4.07
207.53	4.075
208.61	4.08
210.76	4.102
212.91	4.112
215.06	4.128
217.21	4.133
219.36	4.128
221.52	4.128
223.67	4.123
225.82	4.123
227.97	4.118
230.12	4.118
232.27	4.102
234.42	4.075
236.58	4.033
238.73	3.99
240.88	3.948
243.03	3.916
245.18	3.91
247.33	3.932
249.48	3.974
251.64	4.038
253.79	4.096
255.94	4.165
258.09	4.224
260.24	4.266
262.39	4.298
264.55	4.319
266.7	4.335
268.85	4.341
271	4.303
273.15	4.256
275.3	4.218
277.45	4.171
279.61	4.133
281.76	4.102
283.91	4.075
286.06	4.054
288.21	4.033
290.36	4.011
292.52	3.99
294.67	3.953
296.82	3.905
298.97	3.825
301.12	3.735
303.27	3.592
305.42	3.485
307.58	3.427
309.73	3.406
311.88	3.358
314.03	3.321
316.18	3.305
318.33	3.305
320.48	3.315
322.64	3.321
324.79	3.326
326.94	3.331
329.09	3.347
331.24	3.353
333.39	3.353
335.55	3.347
337.7	3.337
339.85	3.321
342	3.3
344.15	3.273
346.3	3.236
348.45	3.22
350.61	3.172
352.76	3.119
354.91	3.05
357.06	2.981
359.21	2.917
361.36	2.859
363.52	2.827
365.67	2.811
367.82	2.806
369.97	2.806
372.12	2.806
374.27	2.827
376.42	2.853
378.58	2.891
380.73	2.917
382.88	2.933
385.03	2.944
387.18	2.981
389.33	3.013
391.48	3.039
393.64	3.066
395.79	3.092
397.94	3.114
400.09	3.135
402.24	3.156
404.39	3.177
406.55	3.193
408.7	3.215
410.85	3.236
413	3.246
415.15	3.262
417.3	3.284
419.45	3.305
421.61	3.315
423.76	3.331
425.91	3.342
428.06	3.363
430.21	3.369
432.36	3.379
434.52	3.39
436.67	3.4
438.82	3.406
440.97	3.411
443.12	3.422
445.27	3.427
447.42	3.432
449.58	3.432
451.73	3.432
453.88	3.438
456.03	3.438
458.18	3.438
460.33	3.432
462.48	3.427
464.64	3.411
466.79	3.406
468.94	3.395
471.09	3.379
473.24	3.374
475.39	3.358
477.55	3.347
479.7	3.326
481.85	3.31
484	3.294
486.15	3.273
488.3	3.257
490.45	3.23
492.61	3.204
494.76	3.183
496.91	3.156
499.06	3.135
501.21	3.103
503.36	3.076
505.52	3.045
507.67	3.002
509.82	2.97
511.97	2.933
514.12	2.88
516.27	2.843
518.42	2.8
520.58	2.768
522.73	2.721
524.88	2.678
527.03	2.673
529.18	2.614
531.33	2.566
533.48	2.513
535.64	2.476
537.79	2.439
539.94	2.396
542.09	2.354
544.24	2.306
546.39	2.28
548.55	2.242
550.7	2.205
552.85	2.152
555	2.12
557.15	2.078
559.3	2.046
