Uv/Vis Spectrum: Pyrimidine,4,6-difluoro-
Formula: C4H2F2N2
CAS: 2802-62-2
Boiling point: 110-111
Instrument: SF-16
Origin: INSTITUTE OF ENERGY PROBLEMS OF CHEMICAL PHYSICS, RAS
Wavelength (nm)	Logarithm epsilon
202.45	3.573
202.94	3.568
203.43	3.568
203.92	3.568
204.41	3.565
205.39	3.556
206.37	3.544
207.34	3.53
208.32	3.515
209.3	3.493
210.28	3.47
211.26	3.43
212.24	3.386
213.22	3.35
214.2	3.31
215.18	3.283
216.16	3.243
217.14	3.212
218.12	3.181
219.1	3.158
220.08	3.14
221.06	3.127
222.03	3.118
223.01	3.114
223.99	3.114
224.97	3.123
225.95	3.131
226.93	3.136
227.91	3.14
228.89	3.14
229.87	3.131
230.85	3.123
231.83	3.114
232.81	3.105
233.79	3.096
234.77	3.078
235.74	3.06
236.72	3.047
237.7	3.02
238.68	2.993
239.66	2.953
240.64	2.872
241.62	2.8
242.6	2.7
243.58	2.601
244.56	2.525
