Uv/Vis Spectrum: 2,3,4,5,6,7,8,9-octahydro-9-phenyl-1H-thioxanthene
Formula: C19H22S
CAS: 28082-94-2
Melting point: 111-113
Instrument: SF-4
Origin: INSTITUTE OF ENERGY PROBLEMS OF CHEMICAL PHYSICS, RAS
Wavelength (nm)	Logarithm epsilon
211.906	4.152
212.906	4.184
213.906	4.2
214.906	4.206
215.906	4.204
216.906	4.198
217.906	4.189
218.906	4.179
219.906	4.167
220.906	4.155
221.906	4.142
222.906	4.126
223.906	4.107
224.906	4.085
225.906	4.058
226.906	4.026
227.906	3.99
228.868	3.947
229.868	3.902
230.868	3.873
231.868	3.854
232.868	3.841
233.868	3.831
234.868	3.823
235.868	3.814
236.868	3.804
237.868	3.793
238.868	3.782
239.868	3.769
240.868	3.758
241.868	3.746
242.868	3.735
243.868	3.724
244.868	3.712
245.83	3.69
246.83	3.679
247.83	3.664
248.83	3.646
249.83	3.624
250.83	3.601
251.83	3.575
252.83	3.548
253.83	3.52
254.83	3.491
255.83	3.462
256.83	3.432
257.83	3.402
258.83	3.371
259.83	3.34
260.83	3.308
261.83	3.275
262.735	3.237
263.792	3.19
264.792	3.161
265.792	3.153
266.792	3.158
267.792	3.167
268.792	3.176
269.792	3.181
270.792	3.179
271.792	3.17
272.792	3.156
273.792	3.139
274.792	3.126
275.792	3.121
275.877	3.121
276.877	3.144
277.877	3.164
278.877	3.179
279.877	3.189
280.877	3.195
281.877	3.196
282.877	3.194
283.877	3.187
284.877	3.179
285.877	3.168
286.877	3.157
287.669	3.151
288.669	3.14
289.669	3.137
290.669	3.138
291.669	3.14
292.669	3.141
293.669	3.137
294.669	3.127
295.669	3.109
296.669	3.082
297.669	3.045
298.669	2.998
299.669	2.942
300.669	2.878
301.669	2.809
301.723	2.804
302.723	2.734
303.723	2.674
304.723	2.62
305.723	2.569
306.723	2.517
307.723	2.462
308.723	2.403
309.723	2.338
310.723	2.268
311.723	2.192
312.723	2.112
313.723	2.03
