Uv/Vis Spectrum: Benzene, 1-ethyl-2-(phenylmethyl)-
Formula: C15H16
CAS: 28122-25-0
Instrument: unknown
Origin: INSTITUTE OF ENERGY PROBLEMS OF CHEMICAL PHYSICS, RAS
Wavelength (nm)	Logarithm epsilon
230.86	2.643
230.9	2.635
231.01	2.619
231.11	2.602
231.24	2.583
231.46	2.562
231.63	2.548
231.8	2.532
231.97	2.518
232.14	2.504
232.31	2.492
232.48	2.48
232.65	2.469
232.83	2.461
233	2.451
233.17	2.442
233.34	2.434
233.51	2.425
233.68	2.42
233.85	2.413
234.02	2.407
234.19	2.399
234.37	2.394
234.54	2.388
234.71	2.383
234.88	2.377
235.05	2.372
235.22	2.369
235.39	2.364
235.56	2.36
235.74	2.356
235.91	2.353
236.08	2.349
236.25	2.346
236.42	2.344
236.59	2.342
236.76	2.339
236.93	2.337
237.11	2.334
237.28	2.334
237.45	2.331
237.62	2.329
237.79	2.328
237.96	2.328
238.13	2.328
238.3	2.327
238.48	2.327
238.65	2.326
238.82	2.326
238.99	2.326
239.16	2.326
239.33	2.327
239.5	2.327
239.67	2.327
239.85	2.329
240.02	2.331
240.19	2.333
240.36	2.334
240.53	2.337
240.7	2.338
240.87	2.343
241.04	2.346
241.21	2.349
241.39	2.354
241.56	2.359
241.73	2.363
241.9	2.37
242.07	2.375
242.24	2.379
242.41	2.386
242.58	2.393
242.76	2.399
242.93	2.407
243.1	2.412
243.27	2.42
243.44	2.426
243.61	2.434
243.78	2.439
243.95	2.447
244.13	2.454
244.3	2.46
244.47	2.467
244.64	2.475
244.81	2.481
244.98	2.488
245.15	2.494
245.32	2.501
245.5	2.506
245.67	2.513
245.84	2.52
246.01	2.525
246.18	2.532
246.35	2.537
246.52	2.542
246.69	2.548
246.87	2.555
247.04	2.559
247.21	2.565
247.38	2.571
247.55	2.575
247.72	2.581
247.89	2.586
248.06	2.591
248.23	2.596
248.41	2.6
248.58	2.605
248.75	2.61
248.92	2.614
249.09	2.619
249.26	2.624
249.43	2.627
249.6	2.632
249.78	2.636
249.95	2.64
250.12	2.644
250.29	2.649
250.46	2.652
250.63	2.657
250.8	2.661
250.97	2.665
251.15	2.668
251.32	2.672
251.49	2.676
251.66	2.68
251.83	2.683
252	2.688
252.17	2.691
252.34	2.695
252.52	2.698
252.69	2.702
252.86	2.706
253.03	2.71
253.2	2.713
253.37	2.717
253.54	2.72
253.71	2.725
253.89	2.726
254.06	2.731
254.23	2.734
254.4	2.738
254.57	2.741
254.74	2.745
254.91	2.748
255.08	2.752
255.25	2.756
255.43	2.759
255.6	2.762
255.77	2.765
255.94	2.769
256.11	2.771
256.28	2.774
256.45	2.775
256.62	2.775
256.8	2.774
256.97	2.773
257.14	2.771
257.31	2.769
257.48	2.767
257.65	2.767
257.82	2.767
257.99	2.767
258.17	2.768
258.34	2.769
258.51	2.773
258.68	2.776
258.85	2.781
259.02	2.786
259.19	2.79
259.36	2.795
259.54	2.8
259.71	2.804
259.88	2.809
260.05	2.813
260.22	2.817
260.39	2.821
260.56	2.825
260.73	2.829
260.91	2.832
261.08	2.835
261.25	2.838
261.42	2.841
261.59	2.844
261.76	2.848
261.93	2.851
262.1	2.853
262.28	2.857
262.45	2.86
262.62	2.863
262.79	2.865
262.96	2.867
263.13	2.868
263.3	2.866
263.47	2.863
263.64	2.859
263.82	2.855
263.99	2.851
264.16	2.847
264.33	2.842
264.5	2.835
264.67	2.83
264.84	2.826
265.01	2.82
265.19	2.814
265.36	2.808
265.53	2.802
265.7	2.796
265.87	2.79
266.04	2.784
266.21	2.775
266.38	2.767
266.56	2.76
266.73	2.748
266.9	2.733
267.07	2.71
267.24	2.704
267.41	2.702
267.58	2.702
267.75	2.703
267.93	2.709
268.1	2.717
268.27	2.724
268.44	2.734
268.61	2.744
268.78	2.754
268.95	2.756
269.12	2.754
269.3	2.749
269.47	2.742
269.64	2.735
269.81	2.729
269.98	2.723
270.15	2.717
270.32	2.711
270.49	2.707
270.66	2.702
270.84	2.697
271.01	2.691
271.18	2.685
271.35	2.678
271.52	2.672
271.69	2.66
271.86	2.65
272.03	2.639
272.21	2.624
272.38	2.601
272.55	2.579
272.72	2.551
272.89	2.52
273.06	2.475
273.23	2.429
273.4	2.371
273.58	2.303
273.75	2.223
273.92	2.125
274.09	2.066
274.26	2.025
274.43	1.989
274.6	1.952
274.77	1.915
274.95	1.884
275.12	1.854
275.29	1.822
275.46	1.796
275.63	1.763
275.8	1.742
275.97	1.719
276.14	1.685
276.32	1.664
276.49	1.643
276.66	1.608
276.83	1.589
277	1.557
277.17	1.529
277.34	1.514
