Uv/Vis Spectrum: Barbituric acid, 5-nitro-
Formula: C4H3N3O5
CAS: 28176-10-5
Instrument: Unicam SP 800
Origin: INSTITUTE OF ENERGY PROBLEMS OF CHEMICAL PHYSICS, RAS
Wavelength (nm)	Logarithm epsilon
195.87	3.886
195.97	3.886
196.08	3.887
196.18	3.887
196.28	3.887
196.38	3.887
196.49	3.887
196.59	3.887
196.69	3.888
196.8	3.888
196.9	3.888
197.11	3.887
197.52	3.889
197.93	3.892
198.34	3.894
198.75	3.898
199.17	3.904
199.58	3.908
199.99	3.913
200.4	3.917
200.81	3.923
201.22	3.93
201.64	3.937
202.05	3.946
202.46	3.955
202.87	3.962
203.28	3.969
203.7	3.978
204.11	3.99
204.52	3.997
204.93	4.004
205.34	4.01
205.76	4.022
206.17	4.029
206.58	4.04
206.99	4.047
207.4	4.056
207.82	4.062
208.23	4.072
208.64	4.081
209.05	4.092
209.46	4.1
209.87	4.11
210.29	4.119
210.7	4.127
211.11	4.135
211.52	4.146
211.93	4.153
212.35	4.164
212.76	4.175
213.17	4.185
213.58	4.19
213.99	4.199
214.41	4.209
214.82	4.218
215.23	4.223
215.64	4.23
216.05	4.239
216.47	4.247
216.88	4.254
217.29	4.257
217.7	4.264
218.11	4.269
218.52	4.273
218.94	4.275
219.35	4.276
219.76	4.275
220.17	4.274
220.58	4.271
221	4.264
221.41	4.257
221.82	4.253
222.23	4.239
222.64	4.232
223.06	4.216
223.47	4.206
223.88	4.192
224.29	4.172
224.7	4.15
225.12	4.127
225.53	4.103
225.94	4.077
226.35	4.05
226.76	4.026
227.17	3.995
227.59	3.962
228	3.93
228.41	3.913
228.82	3.889
229.23	3.877
229.65	3.868
230.06	3.86
230.47	3.85
230.88	3.841
231.29	3.834
231.71	3.829
232.12	3.824
232.53	3.819
232.94	3.813
233.35	3.808
233.77	3.804
234.18	3.801
234.59	3.798
235	3.797
235.41	3.795
235.83	3.792
236.24	3.788
236.65	3.787
237.06	3.784
237.47	3.784
237.88	3.784
238.3	3.783
238.71	3.782
239.12	3.779
239.53	3.776
239.94	3.773
240.36	3.77
240.77	3.766
241.18	3.762
241.59	3.756
242	3.747
242.42	3.737
242.83	3.728
243.24	3.72
243.65	3.708
244.06	3.704
244.48	3.691
244.89	3.678
245.3	3.671
245.71	3.644
246.12	3.638
246.53	3.627
246.95	3.608
247.36	3.593
247.77	3.57
248.18	3.557
248.59	3.532
249.01	3.521
249.42	3.496
249.83	3.483
250.24	3.462
250.65	3.44
251.07	3.429
251.48	3.414
251.89	3.395
252.3	3.372
252.71	3.355
253.13	3.338
253.54	3.323
253.95	3.308
254.36	3.284
254.77	3.263
255.18	3.245
255.6	3.232
256.01	3.218
256.42	3.193
256.83	3.178
257.24	3.156
257.66	3.145
258.07	3.128
258.48	3.116
258.89	3.091
259.3	3.072
259.72	3.058
260.13	3.044
260.54	3.037
260.95	3.03
261.36	3.022
261.78	3.007
262.19	2.999
262.6	2.992
263.01	2.983
263.42	2.975
263.83	2.975
264.25	2.967
264.66	2.967
265.07	2.967
265.48	2.958
265.89	2.958
266.31	2.95
266.72	2.95
267.13	2.95
267.54	2.941
267.95	2.95
268.37	2.941
268.78	2.941
269.19	2.941
269.6	2.941
270.01	2.941
270.43	2.941
270.84	2.95
271.25	2.958
271.66	2.967
272.07	2.967
272.49	2.975
272.9	2.975
273.31	2.983
273.72	2.992
274.13	3.007
274.54	3.007
274.96	2.999
275.37	3.007
275.78	3.022
276.19	3.044
276.6	3.044
277.02	3.058
277.43	3.072
277.84	3.085
278.25	3.104
278.66	3.098
279.08	3.11
279.9	3.14
280.31	3.145
280.72	3.156
281.14	3.167
281.55	3.183
281.96	3.183
282.37	3.198
282.78	3.213
283.19	3.222
283.61	3.241
284.02	3.25
284.43	3.263
284.84	3.276
285.25	3.292
285.67	3.304
286.08	3.312
286.49	3.33
286.9	3.341
287.31	3.355
287.73	3.366
288.14	3.379
288.55	3.392
288.96	3.401
289.37	3.417
289.79	3.429
290.2	3.443
290.61	3.46
291.02	3.47
291.43	3.476
291.84	3.494
292.26	3.506
292.67	3.525
293.08	3.535
293.49	3.546
293.9	3.563
294.32	3.578
294.73	3.593
295.14	3.599
295.55	3.608
295.96	3.62
296.38	3.635
296.79	3.652
297.2	3.675
297.61	3.675
298.02	3.688
298.44	3.693
298.85	3.7
299.26	3.713
299.67	3.725
300.08	3.738
300.5	3.747
300.91	3.754
301.32	3.766
301.73	3.776
302.14	3.786
302.55	3.792
302.97	3.798
303.38	3.807
303.79	3.817
304.2	3.826
304.61	3.832
305.03	3.838
305.44	3.846
305.85	3.855
306.26	3.86
306.67	3.868
307.09	3.875
307.5	3.882
307.91	3.891
308.32	3.897
308.73	3.902
309.15	3.907
309.56	3.914
309.97	3.92
310.38	3.925
310.79	3.929
311.2	3.937
311.62	3.941
312.03	3.946
312.44	3.953
312.85	3.956
313.26	3.959
313.68	3.963
314.09	3.966
314.5	3.97
314.91	3.973
315.32	3.976
315.74	3.98
316.15	3.983
316.56	3.985
316.97	3.986
317.38	3.988
317.8	3.99
318.21	3.991
318.62	3.992
319.03	3.993
319.44	3.993
319.85	3.993
320.27	3.992
320.68	3.991
321.09	3.99
321.5	3.99
321.91	3.987
322.33	3.986
322.74	3.984
323.15	3.981
323.56	3.978
323.97	3.976
324.39	3.973
324.8	3.97
325.21	3.966
325.62	3.962
326.03	3.958
326.45	3.955
326.86	3.951
327.27	3.946
327.68	3.941
328.09	3.936
328.5	3.931
328.92	3.926
329.33	3.923
329.74	3.917
330.15	3.912
330.56	3.905
330.98	3.898
331.39	3.893
331.8	3.885
332.21	3.884
332.62	3.876
333.04	3.872
333.45	3.868
333.86	3.861
334.27	3.856
334.68	3.851
335.1	3.841
335.51	3.839
335.92	3.832
336.33	3.824
336.74	3.818
337.16	3.812
337.57	3.804
337.98	3.798
338.39	3.792
338.8	3.784
339.21	3.778
339.63	3.771
340.04	3.764
340.45	3.759
340.86	3.749
341.27	3.741
341.69	3.734
342.1	3.726
342.51	3.717
342.92	3.71
343.33	3.702
343.75	3.689
344.16	3.68
344.57	3.678
344.98	3.659
345.39	3.649
345.81	3.644
346.22	3.635
346.63	3.624
347.04	3.616
347.45	3.608
347.86	3.597
348.28	3.584
348.69	3.574
349.1	3.568
349.51	3.557
349.92	3.544
350.34	3.532
