Uv/Vis Spectrum: 2-Aminobenzophenone
Formula: C13H11NO
CAS: 2835-77-0
Melting point: 110.5
Instrument: n.i.g.
Origin: INSTITUTE OF ENERGY PROBLEMS OF CHEMICAL PHYSICS, RAS
Wavelength (nm)	Logarithm epsilon
393.032	1.11826
391.518	1.14919
390.058	1.18037
388.651	1.21178
387.294	1.24342
385.987	1.27528
384.726	1.30734
383.512	1.33961
382.341	1.37206
381.213	1.40468
380.126	1.43748
379.079	1.47043
378.071	1.50352
377.099	1.53675
376.164	1.57011
375.263	1.60359
374.396	1.63717
373.561	1.67084
372.757	1.70461
371.983	1.73845
371.238	1.77235
370.521	1.80631
369.831	1.84031
369.167	1.87435
368.528	1.90842
367.913	1.9425
367.322	1.97658
366.752	2.01066
366.204	2.04473
365.675	2.07877
365.167	2.11277
364.677	2.14673
364.205	2.18063
363.751	2.21446
363.312	2.24822
362.889	2.2819
362.48	2.31547
362.48	2.31547
362.235	2.34995
361.984	2.38443
361.726	2.4189
361.46	2.45336
361.185	2.48781
360.9	2.52223
360.603	2.55663
360.294	2.59101
359.972	2.62535
359.635	2.65965
359.283	2.69392
358.913	2.72814
358.527	2.76232
358.121	2.79644
357.696	2.8305
357.25	2.86451
356.782	2.89845
356.292	2.93232
355.779	2.96612
355.24	2.99985
354.677	3.03349
354.087	3.06705
353.47	3.10052
352.826	3.1339
352.153	3.16718
351.45	3.20036
350.717	3.23343
349.954	3.2664
349.159	3.29925
348.332	3.33198
347.472	3.3646
346.579	3.39709
345.653	3.42944
344.692	3.46167
343.697	3.49376
342.666	3.5257
341.601	3.5575
340.499	3.58915
340.499	3.58915
338.376	3.6269
336.267	3.66056
334.079	3.6902
331.72	3.71591
329.106	3.73779
326.159	3.75591
326.159	3.75591
321.517	3.76006
319.742	3.76296
319.227	3.76706
319.227	3.76706
316.961	3.7627
314.711	3.75833
312.501	3.74314
312.501	3.74314
312.496	3.74675
312.491	3.75035
312.486	3.75396
312.486	3.75396
310.013	3.73025
307.801	3.71208
305.801	3.68951
303.95	3.66342
302.192	3.63468
300.472	3.60416
298.736	3.57274
298.736	3.57274
297.897	3.54426
296.588	3.51332
295.057	3.48835
295.057	3.48835
293.73	3.45208
292.4	3.41568
291.098	3.37876
289.851	3.34097
288.689	3.30191
287.637	3.26122
287.637	3.26122
286.322	3.22836
285.844	3.2136
285.784	3.20428
285.784	3.20428
285.588	3.2042
285.392	3.20412
285.196	3.20404
285.196	3.20404
285.068	3.19353
284.942	3.18278
284.815	3.17193
284.815	3.17193
281.819	3.09236
279.998	3.04354
278.987	3.01709
278.453	3.00468
278.074	2.99795
278.074	2.99795
277.721	2.9978
277.357	2.99764
276.988	2.99748
276.988	2.99748
276.017	3.03345
275.255	3.07285
274.646	3.11427
274.136	3.15628
273.672	3.19749
273.201	3.23647
273.201	3.23647
272.197	3.27039
271.781	3.31249
271.434	3.35366
270.645	3.38477
270.645	3.38477
270.134	3.42122
269.592	3.45707
269.022	3.4924
268.427	3.52728
267.811	3.56178
267.176	3.59596
266.526	3.6299
265.864	3.66367
265.192	3.69733
264.514	3.73096
263.832	3.76463
263.15	3.7984
262.47	3.83236
261.795	3.86656
261.795	3.86656
261	3.88508
260.21	3.90338
259.425	3.92156
259.425	3.92156
257.98	3.94095
256.547	3.95948
255.129	3.97734
253.726	3.99469
252.341	4.01173
250.975	4.02864
249.628	4.0456
248.303	4.06279
247	4.08041
245.72	4.09863
244.465	4.11763
243.236	4.1376
242.033	4.15872
240.857	4.18118
239.71	4.20515
239.71	4.20515
238.801	4.23466
237.904	4.26403
237.025	4.29338
236.165	4.32282
235.33	4.35245
234.522	4.38238
233.744	4.41274
233	4.44362
232.293	4.47514
231.626	4.50741
231.626	4.50741
231.267	4.51799
230.91	4.52845
230.553	4.53869
230.553	4.53869
230.025	4.57573
229.28	4.60839
228.438	4.63886
227.615	4.66935
226.925	4.70203
226.48	4.73911
