Uv/Vis Spectrum: 3-Aminobenzophenone
Formula: C13H11NO
CAS: 2835-78-1
Melting point: 87
Instrument: n.i.g.
Origin: INSTITUTE OF ENERGY PROBLEMS OF CHEMICAL PHYSICS, RAS
Wavelength (nm)	Logarithm epsilon
415.515	1.00812
414.817	1.00994
414.122	1.01154
413.429	1.01302
411.971	1.23995
411.558	1.25213
411.146	1.26432
410.735	1.2765
408.18	1.49569
407.986	1.50367
407.769	1.51142
407.539	1.51905
403.6	1.73251
403.517	1.7442
403.409	1.75576
403.289	1.7671
398.347	1.9433
397.378	1.97005
397.136	2.03278
397.136	2.03278
397.077	2.00491
395.962	2.04068
395.451	2.04684
395.159	2.05652
390.666	2.23529
390.502	2.24428
390.326	2.25305
390.127	2.26171
384.167	2.47747
383.809	2.48811
383.453	2.49863
383.097	2.50893
376.345	2.72459
375.934	2.73184
375.543	2.74249
374.844	2.7565
372.826	2.80363
372.499	2.80359
372.173	2.80356
371.847	2.80352
371.847	2.80352
371.839	2.81253
371.831	2.82132
371.823	2.82999
370.867	2.86145
370.543	2.86142
370.22	2.86138
369.898	2.86134
351.471	3.18655
351.181	3.18652
350.891	3.18648
350.601	3.18645
350.601	3.18645
350.598	3.19001
350.595	3.19357
350.592	3.19714
345.704	3.24387
344.508	3.24973
344.019	3.25377
343.813	3.25941
326.919	3.25205
326.381	3.24941
325.837	3.24665
325.28	3.24367
325.28	3.24367
325.213	3.23755
325.146	3.23143
325.079	3.22531
317.614	3.07098
317.037	3.07089
316.454	3.0708
315.87	3.05493
315.87	3.05493
315.866	3.06038
315.863	3.0656
315.859	3.07071
315.859	3.07071
315.105	3.04874
314.465	3.03907
313.818	3.0312
313.482	3.03878
313.442	3.03521
313.387	3.03164
313.324	3.02807
309.103	3.00654
308.361	3.00203
307.773	2.99595
307.297	2.98232
298.876	2.80936
298.666	2.80933
298.456	2.80929
298.247	2.80926
298.247	2.80926
298.243	2.81471
298.24	2.81993
298.237	2.82504
292.877	2.6449
292.788	2.63456
292.686	2.62398
292.578	2.61329
292.578	2.61329
292.339	2.61259
292.089	2.61165
291.832	2.61061
291.832	2.61061
291.55	2.60189
291.262	2.59305
290.962	2.58398
289.986	2.50184
289.703	2.50179
289.413	2.50174
289.112	2.50168
284.858	2.37922
284.769	2.37666
284.668	2.3741
284.562	2.37153
277.073	2.49381
277.068	2.50282
277.064	2.5116
277.059	2.52028
272.864	2.97865
272.779	2.99643
272.689	3.0141
272.587	3.03154
272.325	3.05796
272.054	3.08989
271.836	3.11922
271.24	3.14225
268.077	3.36305
267.968	3.38564
267.837	3.39656
267.575	3.4052
265.527	3.54222
265.514	3.54959
265.444	3.55367
265.259	3.55795
264.639	3.57105
264.187	3.61498
263.254	3.66095
262.406	3.70242
262.406	3.70242
262.127	3.70336
261.844	3.70418
261.551	3.70478
260.709	3.74176
260.357	3.74713
259.997	3.75227
259.632	3.7573
250.035	3.93681
249.674	3.94485
249.309	3.95277
248.936	3.96047
247.538	3.98406
247.289	3.98856
247.035	3.99294
246.773	3.9971
242.548	4.14367
242.133	4.14357
241.719	4.14346
241.308	4.14335
231.495	4.30972
231.493	4.31517
231.491	4.32039
231.489	4.3255
