Uv/Vis Spectrum: Benzamide, 4-amino-
Formula: C7H8N2O
CAS: 2835-68-9
Melting point: 183
Instrument: Spektromom 201
Origin: INSTITUTE OF ENERGY PROBLEMS OF CHEMICAL PHYSICS, RAS
Wavelength (nm)	Logarithm epsilon
202.71	4.352
203.89	4.335
204.91	4.314
205.93	4.294
206.94	4.27
208.13	4.25
209.14	4.226
210.16	4.206
211	4.182
211.85	4.158
212.87	4.134
213.71	4.107
214.73	4.083
215.57	4.06
216.42	4.036
217.27	4.009
218.11	3.985
218.96	3.958
219.64	3.931
220.48	3.904
221.16	3.876
221.67	3.849
222.35	3.822
223.19	3.795
223.7	3.768
224.55	3.741
225.06	3.713
225.73	3.686
226.58	3.659
227.09	3.632
227.76	3.605
228.44	3.578
228.95	3.55
229.63	3.523
230.3	3.496
230.81	3.469
231.32	3.442
231.83	3.415
232.33	3.388
233.01	3.36
233.52	3.33
234.03	3.303
234.54	3.276
235.38	3.248
236.23	3.225
237.24	3.201
238.6	3.184
240.12	3.194
241.31	3.214
242.32	3.235
243	3.262
243.85	3.286
244.35	3.313
245.2	3.34
245.88	3.367
246.56	3.394
247.4	3.421
248.08	3.449
248.59	3.476
249.43	3.503
250.11	3.53
250.79	3.557
251.63	3.584
252.31	3.612
252.82	3.639
253.67	3.662
254.34	3.69
255.19	3.717
255.87	3.744
256.71	3.771
257.56	3.798
258.41	3.825
258.91	3.853
259.93	3.876
260.61	3.904
261.45	3.927
262.3	3.951
263.15	3.978
264.16	4.002
265.18	4.026
266.19	4.049
267.21	4.07
268.22	4.094
269.41	4.111
270.59	4.131
271.95	4.148
273.3	4.162
274.49	4.178
275.84	4.192
277.37	4.202
278.72	4.212
280.24	4.219
281.77	4.223
283.29	4.229
284.82	4.233
286.34	4.226
287.86	4.223
289.39	4.219
290.91	4.209
292.26	4.195
293.62	4.185
294.97	4.172
296.33	4.155
297.51	4.138
298.53	4.117
299.54	4.097
300.73	4.077
301.58	4.053
302.59	4.029
303.61	4.009
304.45	3.982
305.3	3.958
306.15	3.934
306.99	3.91
307.67	3.883
308.18	3.856
309.02	3.829
309.53	3.802
310.21	3.775
310.72	3.747
311.22	3.72
311.9	3.693
312.41	3.666
312.75	3.635
313.26	3.608
313.76	3.581
314.1	3.55
314.61	3.52
314.95	3.489
315.46	3.462
315.97	3.435
316.13	3.404
316.47	3.374
316.98	3.343
317.32	3.313
317.83	3.286
318.17	3.255
318.5	3.225
318.84	3.194
319.18	3.163
319.69	3.133
320.03	3.102
320.37	3.072
320.54	3.041
320.87	3.011
321.21	2.98
321.38	2.95
321.72	2.919
321.89	2.889
322.23	2.858
322.57	2.827
322.91	2.797
323.08	2.766
323.41	2.736
323.75	2.705
323.92	2.675
324.26	2.644
324.6	2.614
324.94	2.583
325.11	2.552
325.45	2.522
325.61	2.491
326.12	2.461
326.29	2.43
326.63	2.4
326.97	2.369
327.31	2.339
327.82	2.308
328.15	2.277
328.49	2.247
328.83	2.216
329.34	2.186
329.68	2.155
330.02	2.125
330.35	2.094
330.69	2.064
330.86	2.033
331.03	2.002
331.37	1.972
331.71	1.941
332.05	1.911
332.39	1.88
332.73	1.85
332.89	1.819
333.26	1.778
333.86	1.712
334.38	1.656
334.93	1.592
335.43	1.527
336.11	1.459
336.79	1.391
337.47	1.324
338.14	1.269
338.82	1.218
339.5	1.181
340.17	1.13
340.85	1.093
341.53	1.052
342.21	1.018
342.88	0.994
343.56	0.964
344.24	0.933
344.91	0.913
345.59	0.886
346.27	0.862
346.95	0.838
347.62	0.818
