Uv/Vis Spectrum: 3-Chloroanisole
Formula: C7H7ClO
CAS: 2845-89-8
Boiling point: 193.5
Instrument: Hilger spectrophotometer
Origin: INSTITUTE OF ENERGY PROBLEMS OF CHEMICAL PHYSICS, RAS
Wavelength (nm)	Logarithm epsilon
275.275	2.74186
275.526	2.76194
275.607	2.76204
275.688	2.76827
275.768	2.77442
275.769	2.76836
275.941	2.77461
276.021	2.78141
276.113	2.78151
276.193	2.78748
276.274	2.79336
276.275	2.78756
276.365	2.79345
276.697	2.81759
276.777	2.82308
276.778	2.81767
276.857	2.8285
276.859	2.82316
276.949	2.82859
277.11	2.83989
277.2	2.84511
277.201	2.83997
277.281	2.85027
277.282	2.84519
277.452	2.85607
277.454	2.85043
277.533	2.8611
277.534	2.85615
277.613	2.86607
277.614	2.86118
277.693	2.87159
277.695	2.86615
277.784	2.87645
277.785	2.87167
277.946	2.88132
277.947	2.87659
278.036	2.88608
278.037	2.8814
278.116	2.89134
278.118	2.88614
278.288	2.89606
278.29	2.89149
278.369	2.90065
278.37	2.89613
278.45	2.90072
278.541	2.90582
278.621	2.91031
278.622	2.90589
278.703	2.91037
278.873	2.91976
278.955	2.91982
279.035	2.92417
279.127	2.92424
279.207	2.92854
279.289	2.9286
279.379	2.93339
279.461	2.93345
279.541	2.93766
279.713	2.94191
279.714	2.9378
280.559	2.94254
280.642	2.9385
280.897	2.93869
280.98	2.93462
281.235	2.93481
281.236	2.93011
281.409	2.93024
281.41	2.92602
281.584	2.92616
281.585	2.9219
281.666	2.92196
281.749	2.91718
281.831	2.91725
281.832	2.9129
281.924	2.91297
281.925	2.90858
282.007	2.90864
282.008	2.90365
282.09	2.90372
282.183	2.8993
282.264	2.89937
282.265	2.89484
282.347	2.89491
282.348	2.88975
282.44	2.88983
282.441	2.88519
282.523	2.88526
282.699	2.87599
282.7	2.87061
282.782	2.87068
283.04	2.85559
283.122	2.85566
283.205	2.85072
283.296	2.85081
283.379	2.84581
283.461	2.84589
283.462	2.84011
283.635	2.84027
283.718	2.83515
283.81	2.83524
283.893	2.83006
283.974	2.83014
284.057	2.8249
284.658	2.82549
284.741	2.81952
284.996	2.81977
285.157	2.83129
285.329	2.8367
285.33	2.83146
285.502	2.83687
285.661	2.85299
285.663	2.84795
285.752	2.85807
285.753	2.85308
285.831	2.86856
285.832	2.86369
285.91	2.8788
285.912	2.86863
286.16	2.89809
286.161	2.89297
286.24	2.90266
286.241	2.89816
286.33	2.90719
286.332	2.90273
286.913	2.93913
286.993	2.94329
286.994	2.93919
287.329	2.94354
287.42	2.94766
287.756	2.94791
287.839	2.94392
288.094	2.94411
288.353	2.93141
288.434	2.93147
288.693	2.91838
288.785	2.91845
288.95	2.90931
288.952	2.90488
289.034	2.90048
289.126	2.90055
289.127	2.89546
289.209	2.89553
289.21	2.89095
289.292	2.89102
289.293	2.8864
289.552	2.87186
289.553	2.86702
289.645	2.86711
289.646	2.86161
289.988	2.84114
289.989	2.83595
290.247	2.81958
290.249	2.81413
290.414	2.80248
290.416	2.7968
290.507	2.7969
290.509	2.79043
290.674	2.77886
290.676	2.77211
290.767	2.77221
290.769	2.76612
290.851	2.76004
290.853	2.75378
290.936	2.74672
290.937	2.74027
291.029	2.74038
291.03	2.73382
291.111	2.73392
291.114	2.71966
291.28	2.70513
291.281	2.69802
291.373	2.69814
291.374	2.69091
291.455	2.69102
291.457	2.68274
291.538	2.68286
291.539	2.67537
291.798	2.65147
291.799	2.64341
291.892	2.63534
291.974	2.63547
292.398	2.59036
292.49	2.59052
292.491	2.58124
292.573	2.58138
292.574	2.5707
292.748	2.571
292.749	2.56129
292.83	2.56143
292.913	2.55165
293.005	2.55182
293.253	2.51974
293.345	2.51992
293.428	2.50915
293.509	2.50931
293.685	2.4855
293.767	2.48567
293.86	2.47402
293.941	2.4742
294.024	2.46067
