Uv/Vis Spectrum: Germane, trimethyl(phenylmethyl)-
Formula: C10H16Ge
CAS: 2848-62-6
Boiling point: 84/ 13 mm
Instrument: Spectromom 201
Origin: INSTITUTE OF ENERGY PROBLEMS OF CHEMICAL PHYSICS, RAS
Wavelength (nm)	Logarithm epsilon
211.37	3.395
211.54	3.399
211.71	3.402
211.87	3.405
212.04	3.409
212.21	3.412
212.37	3.416
212.54	3.419
212.71	3.422
212.88	3.426
213.38	3.443
213.88	3.46
214.38	3.48
214.88	3.5
215.38	3.521
215.89	3.538
216.39	3.562
216.89	3.585
217.39	3.609
217.89	3.626
218.39	3.653
218.9	3.687
219.4	3.718
219.9	3.745
220.4	3.772
220.9	3.789
221.4	3.806
221.91	3.819
222.41	3.833
222.91	3.84
223.41	3.847
223.91	3.857
224.41	3.86
224.92	3.867
225.42	3.867
225.92	3.863
226.42	3.86
226.92	3.857
227.42	3.853
227.93	3.847
228.43	3.836
228.93	3.816
229.43	3.799
229.93	3.782
230.43	3.765
230.94	3.738
231.44	3.714
231.94	3.687
232.44	3.653
232.94	3.602
233.44	3.551
233.95	3.497
234.45	3.446
234.95	3.368
235.45	3.307
235.95	3.243
236.45	3.158
236.96	3.087
237.46	3.019
237.96	2.927
238.46	2.849
238.96	2.757
239.46	2.683
239.97	2.608
240.47	2.51
240.97	2.445
241.47	2.388
241.97	2.31
242.47	2.252
242.98	2.188
243.48	2.106
243.98	2.052
244.48	1.994
244.98	1.943
245.48	1.875
245.99	1.818
246.49	1.77
246.99	1.699
247.49	1.658
247.99	1.645
248.49	1.641
249	1.648
249.5	1.672
250	1.706
250.5	1.75
251	1.791
251.51	1.835
252.01	1.872
252.51	1.906
253.01	1.926
253.51	1.96
254.01	1.981
254.52	2.018
255.02	2.065
255.52	2.103
256.02	2.13
256.52	2.147
257.02	2.171
257.53	2.198
258.03	2.221
258.53	2.249
259.03	2.272
259.53	2.289
260.03	2.31
260.54	2.327
261.04	2.34
261.54	2.357
262.04	2.374
262.54	2.391
263.04	2.408
263.55	2.418
264.05	2.422
264.55	2.411
265.05	2.408
265.55	2.408
266.05	2.411
266.56	2.418
267.06	2.428
267.56	2.442
268.06	2.462
268.56	2.479
269.06	2.513
269.57	2.523
270.07	2.53
270.57	2.51
271.07	2.462
271.57	2.422
272.07	2.378
272.58	2.327
273.08	2.289
273.58	2.255
274.08	2.235
274.58	2.232
275.08	2.232
275.38	2.244
275.59	2.266
275.82	2.322
276.09	2.374
276.37	2.412
276.59	2.422
276.82	2.415
277.09	2.384
277.59	2.296
278.04	2.212
278.6	2.113
279.1	2.028
279.6	1.95
280.07	1.872
280.6	1.794
281.05	1.726
281.61	1.651
282.11	1.587
282.61	1.519
283.14	1.445
283.61	1.363
284.12	1.284
284.62	1.214
285.12	1.153
285.59	1.084
