Uv/Vis Spectrum: dibenzo[c,e][1,2]dithiin-3-amine
Formula: C12H9NS2
CAS: 28534-18-1
Melting point: 121.5-122.5
Instrument: SFD-2
Origin: INSTITUTE OF ENERGY PROBLEMS OF CHEMICAL PHYSICS, RAS
Wavelength (nm)	Logarithm epsilon
213.568	4.557
214.568	4.57
215.568	4.578
216.568	4.582
217.568	4.583
218.568	4.582
219.568	4.579
220.568	4.576
221.568	4.571
222.568	4.566
223.568	4.561
224.568	4.556
225.568	4.55
226.568	4.544
227.568	4.538
228.568	4.531
229.568	4.524
230.568	4.516
231.568	4.507
232.568	4.497
233.568	4.486
234.568	4.474
235.568	4.461
236.568	4.447
237.568	4.432
238.568	4.416
239.568	4.399
240.568	4.382
241.568	4.364
242.568	4.346
243.568	4.328
244.568	4.31
245.568	4.294
246.568	4.278
247.568	4.263
248.568	4.25
249.568	4.239
250.568	4.229
251.568	4.222
252.568	4.217
253.568	4.214
254.568	4.212
255.568	4.212
256.568	4.212
257.568	4.212
258.568	4.211
258.603	4.206
259.603	4.206
260.603	4.203
261.603	4.195
262.603	4.186
263.603	4.175
264.603	4.164
265.603	4.152
266.603	4.142
267.603	4.132
268.603	4.123
269.603	4.115
270.603	4.108
271.603	4.103
272.603	4.098
273.603	4.094
274.603	4.09
275.603	4.087
276.603	4.084
277.603	4.08
278.603	4.076
279.603	4.072
280.603	4.066
281.603	4.06
282.603	4.053
283.603	4.045
284.603	4.035
285.603	4.025
286.603	4.014
287.603	4.002
288.603	3.99
289.603	3.977
290.603	3.965
291.603	3.953
292.603	3.941
293.603	3.931
294.603	3.923
295.603	3.916
296.603	3.911
297.603	3.909
298.603	3.91
299.581	3.912
300.581	3.919
301.581	3.928
302.581	3.938
303.581	3.949
304.581	3.961
305.581	3.974
306.581	3.987
307.581	4
308.581	4.013
309.581	4.026
310.581	4.038
311.581	4.05
312.581	4.061
313.581	4.071
314.581	4.081
315.581	4.09
316.581	4.098
317.581	4.105
318.581	4.112
319.581	4.117
320.581	4.122
321.581	4.126
322.581	4.129
323.581	4.131
324.581	4.132
325.581	4.133
326.581	4.132
327.581	4.131
328.581	4.128
329.581	4.125
330.581	4.121
331.581	4.116
332.581	4.111
333.581	4.104
334.581	4.097
335.581	4.088
336.581	4.079
337.581	4.069
338.581	4.058
339.581	4.047
340.581	4.034
341.581	4.021
342.581	4.008
343.581	3.994
344.581	3.979
345.581	3.964
346.581	3.948
347.581	3.933
348.581	3.918
349.581	3.903
350.581	3.888
351.107	3.88
352.107	3.869
353.107	3.857
354.107	3.844
355.107	3.832
356.107	3.82
357.107	3.808
358.107	3.796
359.107	3.784
360.107	3.773
361.107	3.761
362.107	3.75
363.107	3.739
364.107	3.728
365.107	3.717
366.107	3.706
367.107	3.696
368.107	3.685
369.107	3.675
370.107	3.665
371.107	3.655
372.107	3.645
373.107	3.635
374.107	3.625
375.107	3.614
376.107	3.604
377.107	3.594
378.107	3.584
379.107	3.574
380.107	3.564
381.107	3.554
382.107	3.544
383.107	3.533
384.107	3.523
385.107	3.513
386.107	3.503
387.107	3.492
388.107	3.482
389.107	3.472
390.107	3.462
391.107	3.452
392.107	3.442
393.107	3.433
394.107	3.423
395.107	3.414
396.107	3.405
397.107	3.397
398.107	3.388
399.107	3.38
400.107	3.372
401.107	3.365
402.107	3.358
403.107	3.351
404.107	3.344
405.107	3.338
406.107	3.332
407.107	3.326
408.107	3.321
409.107	3.315
410.107	3.31
411.107	3.304
412.107	3.298
413.107	3.292
413.182	3.293
414.182	3.283
415.182	3.275
416.182	3.268
417.182	3.26
418.182	3.254
419.182	3.247
420.182	3.24
421.182	3.234
422.182	3.227
423.182	3.219
424.182	3.212
425.182	3.203
426.182	3.194
427.182	3.185
428.182	3.175
429.182	3.164
430.182	3.153
431.182	3.14
432.182	3.127
433.182	3.113
434.182	3.099
435.182	3.084
436.182	3.068
437.182	3.051
438.182	3.034
439.182	3.017
440.182	2.999
441.182	2.98
442.182	2.961
443.182	2.942
444.182	2.922
445.182	2.902
446.182	2.882
447.182	2.862
448.182	2.842
449.182	2.822
450.182	2.802
451.182	2.782
452.182	2.762
453.182	2.742
454.182	2.722
455.182	2.702
456.182	2.682
457.182	2.663
458.182	2.643
459.182	2.624
460.182	2.604
461.182	2.584
462.182	2.564
463.182	2.543
464.182	2.521
465.182	2.499
466.182	2.476
467.182	2.451
468.182	2.425
469.182	2.397
470.182	2.367
471.182	2.334
472.182	2.298
472.596	2.289
474.446	2.262
