Uv/Vis Spectrum: 5-chloro-5H-dibenzarsole
Formula: C12H8AsCl
CAS: 2866-58-2
Melting point: 159-160
Instrument: SF-8
Origin: INSTITUTE OF ENERGY PROBLEMS OF CHEMICAL PHYSICS, RAS
Wavelength (nm)	Logarithm epsilon
200.912	4.415
201.912	4.421
202.912	4.428
203.912	4.435
204.912	4.441
205.912	4.447
206.912	4.451
207.912	4.455
208.912	4.457
209.912	4.459
210.912	4.459
211.912	4.457
212.912	4.455
213.912	4.451
214.912	4.446
215.912	4.44
216.912	4.433
217.912	4.425
218.912	4.416
219.912	4.406
220.912	4.396
221.912	4.385
222.912	4.374
223.912	4.362
224.912	4.35
225.912	4.338
226.912	4.327
227.912	4.315
228.912	4.303
229.912	4.291
230.912	4.28
231.912	4.27
232.912	4.259
233.912	4.249
234.912	4.24
235.912	4.232
236.912	4.224
237.912	4.216
238.912	4.21
239.912	4.204
240.912	4.198
241.912	4.194
242.912	4.19
243.912	4.186
244.912	4.184
245.912	4.182
246.912	4.18
247.912	4.179
248.912	4.179
249.912	4.179
250.912	4.18
251.912	4.181
252.912	4.183
253.912	4.184
254.912	4.187
255.912	4.189
256.912	4.192
257.912	4.195
258.912	4.199
259.912	4.202
260.912	4.206
261.912	4.21
262.912	4.215
263.912	4.219
264.912	4.224
265.912	4.229
266.912	4.234
267.912	4.239
268.912	4.244
269.912	4.25
270.912	4.256
271.912	4.262
272.912	4.268
273.912	4.275
274.912	4.282
275.912	4.289
276.912	4.296
277.912	4.304
278.912	4.312
279.912	4.319
280.912	4.327
281.912	4.335
282.912	4.343
283.486	4.346
284.486	4.356
285.486	4.365
286.486	4.372
287.486	4.378
288.486	4.383
289.486	4.387
290.486	4.391
291.486	4.394
292.486	4.397
293.486	4.399
294.486	4.401
295.486	4.403
296.486	4.404
297.486	4.405
298.486	4.406
299.486	4.406
300.486	4.405
301.486	4.404
302.486	4.402
303.486	4.399
304.486	4.396
305.486	4.391
306.486	4.386
307.486	4.379
308.486	4.371
309.486	4.363
310.486	4.352
311.486	4.341
312.486	4.328
313.486	4.314
314.486	4.299
315.486	4.282
316.486	4.265
317.486	4.246
318.486	4.226
319.486	4.205
320.486	4.183
321.486	4.161
322.486	4.137
323.486	4.114
324.486	4.09
325.486	4.066
326.486	4.042
327.486	4.018
328.486	3.995
329.486	3.972
330.486	3.949
331.486	3.928
332.486	3.908
333.486	3.889
334.486	3.87
335.486	3.853
336.486	3.837
337.486	3.823
338.486	3.809
339.486	3.796
339.617	3.791
340.617	3.783
341.617	3.775
342.617	3.767
343.617	3.759
344.617	3.752
345.617	3.745
346.617	3.738
347.617	3.732
348.617	3.727
349.617	3.722
350.617	3.718
351.617	3.714
352.617	3.711
353.617	3.709
354.617	3.707
355.617	3.706
356.617	3.706
357.617	3.705
358.617	3.706
359.617	3.707
360.617	3.708
361.617	3.709
362.617	3.711
363.617	3.713
364.617	3.715
365.617	3.717
366.617	3.719
367.617	3.722
368.617	3.724
369.617	3.726
370.617	3.729
371.617	3.731
372.617	3.733
373.617	3.735
374.617	3.737
375.617	3.738
376.617	3.739
377.617	3.74
378.617	3.741
379.617	3.742
380.617	3.742
381.617	3.742
382.617	3.741
383.617	3.741
384.617	3.74
385.617	3.739
386.617	3.737
387.617	3.735
388.617	3.733
389.617	3.73
390.617	3.728
391.617	3.725
392.617	3.721
393.617	3.717
394.617	3.713
395.617	3.709
396.617	3.704
397.617	3.699
398.617	3.694
399.617	3.688
400.617	3.682
401.617	3.675
402.617	3.668
403.617	3.661
404.617	3.653
405.617	3.645
406.617	3.636
407.617	3.627
408.617	3.617
409.617	3.607
410.617	3.596
411.617	3.584
412.617	3.572
413.617	3.56
414.617	3.547
415.617	3.533
416.617	3.519
417.617	3.505
417.76	3.501
418.76	3.487
419.76	3.473
420.76	3.458
421.76	3.443
422.76	3.428
423.76	3.413
424.76	3.397
425.76	3.381
426.76	3.364
427.76	3.348
428.76	3.331
429.76	3.315
430.76	3.299
431.76	3.282
432.76	3.266
433.76	3.25
434.76	3.235
435.76	3.22
436.76	3.205
437.76	3.191
438.76	3.177
439.76	3.164
440.76	3.151
441.76	3.139
442.76	3.127
443.76	3.116
444.76	3.106
445.76	3.096
446.76	3.086
447.76	3.077
448.76	3.069
449.76	3.061
450.76	3.052
451.76	3.044
452.76	3.036
453.76	3.028
454.76	3.019
456.437	3.008
457.437	3.001
458.437	2.995
459.437	2.988
460.437	2.982
461.437	2.976
462.437	2.97
463.437	2.964
464.437	2.958
465.437	2.953
466.437	2.947
467.437	2.942
468.437	2.936
469.437	2.931
470.437	2.926
471.437	2.921
472.437	2.916
473.437	2.911
474.437	2.906
475.437	2.901
476.437	2.896
477.437	2.891
478.437	2.886
479.437	2.881
480.437	2.876
481.437	2.87
482.437	2.865
483.437	2.86
484.437	2.855
485.437	2.85
486.437	2.845
487.437	2.839
488.437	2.834
489.437	2.829
490.437	2.823
491.437	2.817
492.437	2.812
493.437	2.806
494.437	2.8
495.437	2.794
