Uv/Vis Spectrum: Phenol, pentachloro-, trichloroacetate
Formula: C8Cl8O2
CAS: 2879-60-9
Melting point: 125-126
Instrument: Spektromom 201
Origin: INSTITUTE OF ENERGY PROBLEMS OF CHEMICAL PHYSICS, RAS
Wavelength (nm)	Logarithm epsilon
202.37	4.152
203.21	4.18
204.06	4.207
204.57	4.234
205.41	4.261
205.92	4.288
206.43	4.316
207.11	4.343
207.61	4.374
208.12	4.401
208.63	4.428
209.14	4.459
209.64	4.489
209.98	4.52
210.32	4.551
210.66	4.581
211	4.612
211.17	4.643
211.51	4.673
211.68	4.704
211.84	4.734
212.01	4.765
212.69	4.792
213.54	4.82
214.72	4.837
216.24	4.837
217.09	4.813
217.6	4.786
217.94	4.755
218.27	4.724
218.44	4.694
218.78	4.663
219.12	4.632
219.46	4.602
219.8	4.571
219.97	4.54
220.47	4.51
220.64	4.479
220.98	4.448
221.32	4.418
221.66	4.387
222	4.357
222.5	4.329
222.84	4.299
223.18	4.268
223.52	4.237
224.2	4.21
224.7	4.183
225.21	4.156
226.06	4.128
227.24	4.111
228.6	4.098
230.12	4.091
231.64	4.091
233.16	4.084
234.69	4.077
236.04	4.06
237.06	4.037
238.07	4.016
238.92	3.989
239.76	3.965
240.44	3.938
241.12	3.911
241.79	3.883
242.3	3.856
242.81	3.829
243.15	3.798
243.66	3.771
243.99	3.74
244.5	3.713
244.84	3.682
245.35	3.655
245.85	3.625
246.36	3.597
246.87	3.57
247.38	3.543
248.05	3.516
248.56	3.488
249.07	3.461
249.92	3.434
250.59	3.407
251.44	3.383
252.28	3.356
253.3	3.332
254.15	3.308
255.16	3.288
256.35	3.267
257.53	3.247
258.38	3.223
259.39	3.199
260.41	3.175
261.25	3.148
262.1	3.124
262.78	3.097
263.28	3.07
264.13	3.042
264.64	3.015
265.31	2.988
265.99	2.961
266.67	2.934
267.51	2.91
268.36	2.882
269.37	2.859
270.22	2.831
271.24	2.811
272.42	2.791
273.77	2.777
275.3	2.777
276.82	2.777
278.17	2.794
279.19	2.818
280.03	2.845
280.71	2.872
281.73	2.896
282.4	2.923
283.42	2.944
284.26	2.971
285.28	2.995
286.13	3.019
286.97	3.042
287.99	3.063
288.83	3.09
289.85	3.114
290.69	3.138
291.54	3.165
292.05	3.192
292.56	3.223
293.06	3.254
293.91	3.281
294.42	3.308
295.43	3.328
296.62	3.345
297.97	3.359
299.15	3.376
300.34	3.397
301.35	3.42
302.54	3.437
304.06	3.444
305.58	3.444
307.11	3.437
308.29	3.417
309.14	3.393
309.65	3.366
310.32	3.339
310.83	3.311
311.34	3.281
311.68	3.25
312.01	3.22
312.35	3.189
312.69	3.158
312.86	3.128
313.03	3.097
313.37	3.066
316.08	2.777
316.41	2.746
316.58	2.716
316.92	2.685
317.26	2.654
317.6	2.624
317.94	2.593
318.27	2.562
318.61	2.532
318.95	2.501
319.29	2.471
319.63	2.44
319.8	2.409
320.14	2.379
320.47	2.348
320.98	2.317
321.32	2.287
321.66	2.256
322	2.225
322.34	2.195
322.84	2.164
323.18	2.133
323.52	2.103
323.86	2.072
324.2	2.042
324.54	2.011
325.04	1.984
325.38	1.953
325.72	1.922
326.06	1.892
326.57	1.861
326.9	1.831
327.41	1.8
327.75	1.769
328.09	1.739
328.43	1.708
328.77	1.677
329.27	1.65
