Uv/Vis Spectrum: Cyclopentane
Formula: C5H10
CAS: 287-92-3
Melting point: -93.8
Boiling point: 49.3
Instrument: Hilger fluorite prism spectrograph
Origin: INSTITUTE OF ENERGY PROBLEMS OF CHEMICAL PHYSICS, RAS
Wavelength (nm)	Logarithm epsilon
170.426	1.53558
170.394	1.56715
170.347	1.62083
170.347	1.62083
170.245	1.65175
170.143	1.68268
170.04	1.71362
169.938	1.74459
169.834	1.7756
169.731	1.80665
169.731	1.80665
169.598	1.83898
169.465	1.87134
169.332	1.90373
169.198	1.93615
169.065	1.96858
168.931	2.00102
168.798	2.03347
168.798	2.03347
168.774	2.03505
168.748	2.03671
168.72	2.03851
168.72	2.03851
168.628	2.06164
168.533	2.0849
168.438	2.10823
168.438	2.10823
168.141	2.15979
167.9	2.20162
167.705	2.23541
167.547	2.26282
167.413	2.28552
167.296	2.3052
167.185	2.32353
167.07	2.34217
166.941	2.36281
166.789	2.38711
166.789	2.38711
166.637	2.40845
166.504	2.42688
166.373	2.44466
166.23	2.464
166.061	2.48716
165.851	2.51638
165.586	2.55389
165.251	2.60194
165.251	2.60194
165.156	2.61291
165.03	2.62918
164.838	2.65411
164.548	2.69112
164.129	2.74358
164.129	2.74358
163.596	2.80095
163.271	2.83534
163.08	2.85524
162.953	2.86914
162.953	2.86914
162.604	2.89898
162.299	2.92384
161.778	2.96504
161.778	2.96504
161.378	2.99182
161.088	3.01082
160.91	3.02372
160.91	3.02372
160.716	3.03568
160.42	3.05655
160.137	3.07609
160.137	3.07609
159.792	3.10449
159.448	3.13296
159.103	3.16158
159.103	3.16158
159.014	3.16631
158.924	3.17104
158.832	3.17577
158.832	3.17577
158.794	3.1761
158.755	3.1765
158.714	3.17704
158.714	3.17704
158.661	3.18052
158.605	3.18407
158.549	3.18776
158.549	3.18776
158.353	3.19253
158.155	3.1994
157.883	3.20858
157.883	3.20858
157.746	3.21151
157.607	3.21459
157.468	3.21773
157.468	3.21773
157.298	3.2247
156.983	3.23537
156.468	3.25433
156.468	3.25433
155.863	3.28454
155.584	3.29898
155.446	3.30543
155.446	3.30543
155.3	3.31515
155.045	3.33125
154.71	3.35401
154.71	3.35401
154.611	3.35872
154.477	3.36813
154.357	3.37893
154.357	3.37893
154.253	3.38641
154.18	3.39018
154.075	3.39345
