Uv/Vis Spectrum: Thietane
Formula: C3H6S
CAS: 287-27-4
Boiling point: 95
Instrument: unknown
Origin: INSTITUTE OF ENERGY PROBLEMS OF CHEMICAL PHYSICS, RAS
Wavelength (nm)	Logarithm epsilon
212.02	2.93
212.6	2.943
213.28	2.953
213.95	2.962
214.71	2.966
215.38	2.972
216.13	2.975
216.89	2.972
217.65	2.97
218.4	2.964
219.16	2.958
219.75	2.947
220.24	2.938
220.84	2.922
221.23	2.904
221.57	2.884
221.91	2.866
222.18	2.846
222.47	2.818
222.77	2.788
223.19	2.75
223.61	2.71
224.03	2.67
224.45	2.628
224.87	2.585
225.29	2.528
225.71	2.469
226.13	2.403
226.55	2.327
226.97	2.263
227.39	2.192
227.81	2.128
228.23	2.048
228.65	1.995
229.07	1.923
229.5	1.859
229.92	1.77
230.34	1.707
230.76	1.631
231.18	1.559
231.6	1.48
232.02	1.428
232.44	1.37
232.86	1.347
233.28	1.326
233.66	1.314
234.03	1.304
234.54	1.294
235.21	1.286
235.86	1.281
236.72	1.279
237.58	1.281
238.22	1.284
238.91	1.288
239.51	1.293
240.27	1.299
241.01	1.305
241.76	1.309
242.52	1.313
243.33	1.318
244.03	1.322
244.79	1.326
245.55	1.33
246.34	1.335
246.98	1.338
247.73	1.341
248.49	1.345
249.24	1.349
250	1.353
250.69	1.358
251.43	1.362
252.2	1.366
252.86	1.37
253.54	1.375
254.28	1.379
255.04	1.383
255.74	1.387
256.47	1.392
257.19	1.396
257.9	1.4
258.65	1.404
259.41	1.408
260.17	1.413
260.92	1.417
261.65	1.422
262.41	1.427
263.19	1.432
263.95	1.436
264.66	1.44
265.38	1.444
266.11	1.449
266.81	1.453
267.56	1.457
268.32	1.461
269.07	1.466
269.83	1.47
270.59	1.474
271.34	1.478
271.97	1.482
272.77	1.485
273.53	1.487
274.23	1.488
275.04	1.489
275.8	1.489
276.55	1.489
277.31	1.489
278.07	1.489
278.8	1.488
279.6	1.487
280.33	1.485
281.05	1.482
281.75	1.48
282.61	1.477
283.36	1.473
284.12	1.47
284.87	1.468
285.57	1.464
286.38	1.459
287.14	1.455
287.9	1.451
288.65	1.447
289.44	1.441
290.17	1.436
290.89	1.431
291.68	1.425
292.35	1.419
293.11	1.413
293.86	1.406
294.62	1.4
295.29	1.394
295.88	1.387
296.53	1.381
297.28	1.372
298.15	1.364
298.82	1.358
