Uv/Vis Spectrum: 1,3-Dimethyl-2-ethylbenzene
Formula: C10H14
CAS: 2870-04-4
Melting point: - 16.2
Boiling point: 190
Instrument: unknown
Origin: INSTITUTE OF ENERGY PROBLEMS OF CHEMICAL PHYSICS, RAS
Wavelength (nm)	Logarithm epsilon
229.65	2.145
229.87	2.136
230.12	2.126
230.29	2.115
230.46	2.104
230.67	2.094
230.88	2.082
231.09	2.071
231.31	2.058
231.48	2.045
231.73	2.034
231.9	2.02
232.11	2.007
232.32	1.995
232.53	1.979
232.75	1.964
232.95	1.95
233.21	1.935
233.45	1.919
233.68	1.904
233.92	1.889
234.18	1.873
234.44	1.858
234.74	1.843
235.07	1.829
235.41	1.816
235.72	1.804
236.09	1.79
236.38	1.783
236.75	1.777
237.23	1.771
237.61	1.769
238	1.768
238.39	1.77
238.77	1.772
239.14	1.775
239.52	1.778
239.9	1.781
240.28	1.785
240.66	1.79
241.05	1.796
241.42	1.803
241.76	1.809
242.17	1.817
242.52	1.823
242.82	1.829
243.21	1.837
243.56	1.844
243.94	1.852
244.26	1.858
244.6	1.866
244.98	1.875
245.32	1.884
245.66	1.892
246	1.899
246.34	1.909
246.68	1.918
247.02	1.926
247.35	1.935
247.69	1.943
247.99	1.954
248.29	1.964
248.63	1.974
248.96	1.983
249.29	1.993
249.6	2
249.9	2.009
250.19	2.018
250.49	2.027
250.78	2.037
251.08	2.047
251.38	2.057
251.63	2.066
251.93	2.076
252.22	2.083
252.48	2.092
252.78	2.101
253.03	2.111
253.33	2.119
253.62	2.126
253.92	2.134
254.17	2.144
254.43	2.152
254.72	2.159
255.02	2.167
255.37	2.174
255.65	2.178
255.99	2.183
256.33	2.188
256.67	2.191
257.01	2.196
257.35	2.2
257.64	2.206
257.94	2.212
258.24	2.217
258.58	2.221
258.96	2.222
259.34	2.222
259.72	2.222
260.1	2.219
260.48	2.219
260.82	2.223
261.12	2.229
261.33	2.238
261.54	2.246
261.75	2.255
261.92	2.263
262.13	2.271
262.35	2.278
262.6	2.284
262.85	2.291
263.19	2.295
263.57	2.295
263.91	2.291
264.25	2.286
264.5	2.279
264.76	2.274
264.93	2.266
265.14	2.259
265.35	2.252
265.61	2.245
265.94	2.24
266.28	2.235
266.58	2.228
266.79	2.221
267.05	2.214
267.21	2.205
267.43	2.197
267.64	2.188
267.77	2.177
267.89	2.167
268.02	2.157
268.15	2.145
268.27	2.133
268.4	2.122
268.57	2.111
268.74	2.1
268.99	2.091
269.17	2.089
269.45	2.091
269.61	2.1
269.76	2.112
269.92	2.124
270.14	2.134
270.26	2.146
270.48	2.157
270.73	2.166
270.96	2.165
271.11	2.162
271.32	2.153
271.43	2.143
271.58	2.13
271.65	2.119
271.79	2.107
271.92	2.095
272.04	2.083
272.17	2.071
272.25	2.057
272.38	2.044
272.51	2.028
272.63	2.014
272.72	1.998
272.85	1.983
272.97	1.968
273.14	1.952
273.27	1.935
273.4	1.918
273.48	1.897
273.65	1.878
273.78	1.858
273.91	1.838
274.07	1.816
274.24	1.793
274.41	1.768
274.58	1.743
274.79	1.715
274.92	1.686
275.13	1.659
275.39	1.634
275.64	1.603
