Uv/Vis Spectrum: 1H-Perimidin-2-amine
Formula: C11H9N3
CAS: 28832-64-6
Melting point: 239-240
Instrument: Specord UV-Vis
Origin: INSTITUTE OF ENERGY PROBLEMS OF CHEMICAL PHYSICS, RAS
Wavelength (nm)	Logarithm epsilon
225.103	4.337
226.303	4.342
227.503	4.349
228.703	4.356
229.903	4.361
231.103	4.366
232.303	4.368
233.503	4.368
234.703	4.367
235.903	4.365
237.103	4.361
238.303	4.356
239.503	4.349
240.703	4.341
241.903	4.331
243.103	4.318
244.303	4.304
245.503	4.287
245.758	4.284
246.958	4.261
248.158	4.241
249.358	4.223
250.558	4.205
251.758	4.188
252.958	4.17
254.158	4.152
255.358	4.131
256.558	4.11
257.758	4.087
258.958	4.062
260.158	4.036
261.358	4.01
262.558	3.982
263.758	3.955
264.958	3.927
266.158	3.9
267.358	3.873
268.558	3.847
269.758	3.823
270.958	3.801
272.158	3.781
273.358	3.763
274.558	3.747
275.758	3.734
276.958	3.724
278.158	3.716
279.358	3.711
280.558	3.708
281.758	3.707
282.958	3.708
284.158	3.711
285.358	3.715
286.558	3.721
287.758	3.726
288.619	3.732
289.819	3.737
291.019	3.74
292.219	3.744
293.419	3.747
294.619	3.75
295.819	3.753
297.019	3.755
298.219	3.758
299.419	3.761
300.619	3.764
301.819	3.767
303.019	3.77
304.219	3.773
305.419	3.776
306.619	3.779
307.819	3.782
309.019	3.786
310.219	3.789
311.419	3.792
312.619	3.796
313.819	3.799
315.019	3.802
316.219	3.805
317.419	3.809
318.619	3.812
319.819	3.814
321.019	3.817
322.219	3.819
323.419	3.822
324.619	3.823
325.819	3.825
327.019	3.827
328.219	3.828
329.419	3.828
330.619	3.829
331.819	3.829
333.019	3.829
334.219	3.828
335.419	3.827
336.619	3.826
337.819	3.824
339.019	3.822
340.219	3.819
341.419	3.817
342.619	3.813
343.819	3.81
345.019	3.806
346.219	3.802
347.419	3.797
348.619	3.793
349.819	3.788
351.019	3.782
352.219	3.777
353.419	3.771
354.619	3.765
355.819	3.758
357.019	3.752
358.219	3.745
359.419	3.738
360.619	3.731
361.819	3.724
363.019	3.717
364.219	3.709
365.419	3.702
366.619	3.694
367.819	3.686
369.019	3.678
370.219	3.67
371.419	3.662
372.619	3.654
373.819	3.645
375.019	3.637
376.219	3.628
377.419	3.619
378.619	3.61
379.819	3.601
381.019	3.592
382.219	3.582
383.419	3.573
384.619	3.563
385.819	3.553
387.019	3.543
388.219	3.532
389.419	3.521
390.619	3.51
391.819	3.499
393.019	3.487
394.219	3.475
395.419	3.463
396.619	3.45
397.819	3.437
399.019	3.424
400.219	3.41
401.419	3.396
402.619	3.382
403.819	3.368
405.019	3.354
406.219	3.339
407.419	3.324
408.619	3.31
409.819	3.295
411.019	3.281
412.219	3.266
413.419	3.253
414.619	3.24
415.819	3.227
417.019	3.216
418.219	3.206
418.751	3.198
