Uv/Vis Spectrum: 1H-Imidazole
Formula: C3H4N2
CAS: 288-32-4
Melting point: 90.7-91.3
Instrument: Unicam SP 500
Origin: INSTITUTE OF ENERGY PROBLEMS OF CHEMICAL PHYSICS, RAS
Wavelength (nm)	Logarithm epsilon
197.13	3.731
197.89	3.732
198.66	3.732
199.44	3.734
200.22	3.739
200.92	3.744
201.72	3.748
202.52	3.752
203.33	3.756
204.14	3.758
204.96	3.76
205.79	3.761
206.62	3.763
207.46	3.761
208.31	3.76
209.07	3.755
209.93	3.75
210.7	3.742
211.48	3.734
212.06	3.724
212.65	3.715
213.35	3.705
213.84	3.694
214.34	3.681
214.84	3.67
216.16	3.63
216.26	3.63
216.46	3.623
216.77	3.609
217.08	3.599
217.39	3.588
217.7	3.575
218.01	3.562
218.32	3.551
218.63	3.537
218.94	3.522
219.26	3.511
219.57	3.495
219.89	3.482
220.2	3.465
220.52	3.445
220.84	3.426
221.16	3.415
221.48	3.396
221.8	3.373
222.12	3.352
222.45	3.33
222.77	3.311
223.09	3.279
223.42	3.253
223.77	3.224
224.07	3.2
224.4	3.166
224.72	3.126
225	3.089
225.39	3.043
225.71	3
226.06	2.958
226.4	2.91
226.73	2.875
227.07	2.819
227.41	2.775
227.74	2.721
228.08	2.67
228.45	2.595
228.77	2.54
229.11	2.474
229.45	2.424
229.81	2.363
230.14	2.306
230.5	2.25
230.84	2.193
231.19	2.136
231.54	2.081
231.89	2.028
232.24	1.967
232.59	1.921
232.95	1.865
233.3	1.815
233.66	1.759
234.01	1.708
234.37	1.642
234.73	1.6
235.09	1.533
235.46	1.488
235.82	1.416
236.18	1.379
236.55	1.309
236.91	1.261
237.28	1.188
237.65	1.142
238.02	1.083
