Uv/Vis Spectrum: Thiazole
Formula: C3H3NS
CAS: 288-47-1
Boiling point: 118
Instrument: Zeiss PMQ II
Origin: INSTITUTE OF ENERGY PROBLEMS OF CHEMICAL PHYSICS, RAS
Wavelength (nm)	Logarithm epsilon
261.862	1.14311
261.606	1.19206
261.448	1.19207
261.198	1.25147
261.055	1.27926
260.924	1.29609
260.907	1.26424
260.65	1.34096
260.512	1.34301
260.245	1.40037
260.106	1.40039
259.844	1.46412
259.705	1.46413
259.442	1.52378
259.304	1.52584
259.044	1.58982
258.906	1.58983
258.644	1.64923
258.507	1.64925
258.241	1.70023
258.105	1.70254
257.856	1.75124
257.704	1.75355
257.458	1.80657
257.306	1.80888
257.06	1.85987
256.908	1.86192
256.661	1.90883
256.51	1.91089
256.267	1.96621
256.116	1.96622
255.872	2.01721
255.72	2.01723
255.479	2.07255
255.329	2.07256
255.087	2.12559
254.938	2.1279
254.696	2.17889
254.548	2.18094
254.308	2.23422
254.16	2.23628
253.919	2.28726
253.772	2.28957
253.532	2.34056
253.401	2.34261
253.147	2.3959
253.017	2.39795
252.763	2.45123
252.633	2.45329
252.378	2.50224
252.249	2.50429
251.994	2.5512
251.864	2.55326
251.608	2.59584
251.479	2.59789
251.225	2.64251
251.096	2.64482
250.845	2.69377
250.716	2.69582
250.46	2.73203
250.332	2.73409
250.083	2.78507
249.956	2.78738
249.702	2.82767
249.575	2.82972
249.317	2.85957
249.078	2.89374
248.936	2.89579
248.696	2.92563
248.554	2.92769
248.314	2.95549
248.172	2.95755
247.931	2.98305
247.789	2.98307
247.413	3.0193
247.288	3.02135
247.032	3.04482
246.907	3.04484
246.654	3.07239
246.529	3.0724
246.275	3.09588
246.151	3.09793
245.899	3.12344
245.774	3.12345
245.521	3.14489
245.397	3.14491
245.144	3.16608
245.022	3.16839
244.785	3.18957
244.648	3.19163
244.413	3.21509
244.275	3.21511
244.039	3.23425
243.902	3.23656
243.667	3.2557
243.53	3.25776
243.296	3.2769
243.16	3.27895
242.925	3.29605
242.79	3.29811
242.556	3.31725
242.42	3.31726
242.188	3.33666
242.053	3.33871
241.818	3.35148
241.684	3.35354
241.451	3.3686
241.199	3.37271
240.95	3.38344
240.832	3.3855
240.597	3.39419
240.464	3.39421
239.734	3.41774
239.617	3.4198
239.37	3.42824
239.254	3.43054
239.008	3.43899
238.775	3.44335
238.416	3.45817
238.285	3.45819
237.927	3.47098
237.81	3.47099
237.568	3.47943
237.452	3.47945
237.096	3.49223
236.981	3.49454
236.625	3.503
236.385	3.51169
236.27	3.51171
236.029	3.51811
235.916	3.52016
235.676	3.52657
235.448	3.5266
235.095	3.53301
234.616	3.53741
234.391	3.53948
233.563	3.54392
232.185	3.54411
231.261	3.54195
230.807	3.53793
230.002	3.53575
229.892	3.53169
229.661	3.52943
229.321	3.5254
229.104	3.52314
228.981	3.51908
228.536	3.51481
228.32	3.50847
227.984	3.50419
227.756	3.49989
227.422	3.49586
227.194	3.49156
226.981	3.48726
226.755	3.48322
226.528	3.47688
226.196	3.46827
225.76	3.45992
225.326	3.45158
225.102	3.44524
224.893	3.44298
224.774	3.43663
224.566	3.43462
224.24	3.4283
224.123	3.42398
223.798	3.41766
223.592	3.41565
223.372	3.41135
223.05	3.40503
222.511	3.39441
222.193	3.39242
222.089	3.38403
221.872	3.37973
221.453	3.37139
221.25	3.36708
221.035	3.36279
220.721	3.36079
220.506	3.35446
220.094	3.35248
219.683	3.34822
218.244	3.35048
217.636	3.3549
216.935	3.36138
216.539	3.36578
216.24	3.3699
216.132	3.36992
215.535	3.37435
215.145	3.38078
214.648	3.38519
214.46	3.38726
214.261	3.39162
213.874	3.39576
213.583	3.40014
213.489	3.40016
213	3.40457
212.711	3.40869
212.514	3.41102
212.134	3.41516
211.088	3.41763
210.895	3.4197
209.479	3.42427
208.447	3.42444
207.99	3.42248
207.523	3.41594
206.971	3.41399
206.42	3.40568
206.059	3.40345
205.513	3.39514
205.154	3.38883
204.797	3.38686
204.613	3.38256
204.429	3.38055
204.257	3.37625
203.989	3.37426
203.891	3.36995
203.72	3.36794
203.453	3.36366
203.271	3.35936
203.005	3.35533
202.74	3.35309
202.654	3.34902
202.39	3.34474
202.21	3.34273
202.125	3.33842
201.946	3.33641
201.778	3.33211
201.515	3.32579
201.254	3.32355
201.158	3.31719
200.898	3.3152
200.814	3.30885
200.637	3.30684
200.378	3.30256
200.294	3.29824
200.036	3.29625
199.779	3.29197
199.522	3.28794
199.102	3.28369
198.928	3.27939
198.755	3.27738
198.591	3.27308
198.498	3.26673
198.335	3.26268
198.162	3.25635
198.08	3.25203
197.735	3.24139
197.402	3.23305
197.321	3.22873
197.07	3.22445
196.404	3.22254
195.754	3.227
195.265	3.2355
195.1	3.23783
194.858	3.24628
194.695	3.25268
194.617	3.2527
194.453	3.25706
194.214	3.26985
194.137	3.2719
193.899	3.28469
193.737	3.28905
193.426	3.3123
193.273	3.31666
193.04	3.33811
192.954	3.33813
192.806	3.35498
192.721	3.35729
192.487	3.37415
192.412	3.37646
192.253	3.38694
192.103	3.3913
191.945	3.40203
191.87	3.40409
191.712	3.41482
191.637	3.41483
191.48	3.42761
191.405	3.42762
191.248	3.43836
191.09	3.44246
190.87	3.45958
190.786	3.46163
190.64	3.47237
190.556	3.47442
190.255	3.49589
190.181	3.4959
189.952	3.50869
189.87	3.51074
189.725	3.52351
189.642	3.52353
189.498	3.5363
189.416	3.53861
189.117	3.55549
189.044	3.5578
188.891	3.56828
188.818	3.57058
188.44	3.58977
188.368	3.59183
188.215	3.60027
187.99	3.60694
187.695	3.62382
187.471	3.63023
187.178	3.64533
187.097	3.64535
186.956	3.65379
186.875	3.6538
186.653	3.66022
186.511	3.66662
186.431	3.66664
186.29	3.67304
186.21	3.67306
186.069	3.67945
185.989	3.67947
185.849	3.68587
185.778	3.68589
185.629	3.69025
185.41	3.69871
185.26	3.69874
185.121	3.70514
185.042	3.70516
184.823	3.70954
