Uv/Vis Spectrum: Oxazole
Formula: C3H3NO
CAS: 288-42-6
Boiling point: 69.5
Instrument: Unicam SP 500 or Hilger Ultrascan
Origin: INSTITUTE OF ENERGY PROBLEMS OF CHEMICAL PHYSICS, RAS
Wavelength (nm)	Logarithm epsilon
238.283	1.12098
238.167	1.12098
238.039	1.13815
237.927	1.16172
237.814	1.17658
237.686	1.1958
237.574	1.21501
237.461	1.23218
237.334	1.2514
237.222	1.27061
237.11	1.28983
236.984	1.30904
236.871	1.32416
236.759	1.34338
236.634	1.36464
236.522	1.38181
236.412	1.41178
236.308	1.48658
236.301	1.43535
236.182	1.50144
236.177	1.46302
236.07	1.51426
235.957	1.51862
235.83	1.52707
235.72	1.55065
235.61	1.57191
235.485	1.59113
235.375	1.61905
235.265	1.64031
235.141	1.66184
235.032	1.68541
234.922	1.70667
234.799	1.73434
234.689	1.75586
234.58	1.77713
234.458	1.80505
234.348	1.82632
234.239	1.84758
234.117	1.87551
234.008	1.90113
233.901	1.9288
233.779	1.95877
233.67	1.97799
233.562	2.00591
233.439	2.02077
233.332	2.04844
233.224	2.06996
233.102	2.09123
232.994	2.1148
232.887	2.14042
232.765	2.16194
232.658	2.18961
232.551	2.21318
232.444	2.23444
232.323	2.26237
232.216	2.28363
232.109	2.30925
231.989	2.33487
231.882	2.35409
231.776	2.38406
231.656	2.40533
231.55	2.4353
231.444	2.45682
231.324	2.48244
231.218	2.50806
231.112	2.53163
230.993	2.5529
230.886	2.57006
230.781	2.59773
230.661	2.61695
230.555	2.63847
230.45	2.65973
230.331	2.6874
230.226	2.70892
230.121	2.73454
230.003	2.75812
229.898	2.77938
229.793	2.8073
229.675	2.83062
229.57	2.85214
229.466	2.87981
229.349	2.90773
229.245	2.93105
229.141	2.95257
229.023	2.97179
228.919	3.00176
228.815	3.02097
228.711	3.04019
228.594	3.06376
228.489	3.08298
228.386	3.10424
228.269	3.12551
228.165	3.14472
228.061	3.16624
227.945	3.18751
227.841	3.20673
227.738	3.22825
227.622	3.24951
227.519	3.27308
227.416	3.29025
227.299	3.30947
227.196	3.32638
227.094	3.3479
226.978	3.36711
226.875	3.38198
226.772	3.39914
226.656	3.42041
226.554	3.43757
226.451	3.45679
226.336	3.47601
226.234	3.49317
226.131	3.50394
226.016	3.52315
225.914	3.54032
225.811	3.55313
225.696	3.56799
225.594	3.58285
225.492	3.59567
225.376	3.60643
225.275	3.62565
225.173	3.63641
225.071	3.64922
224.956	3.66203
224.855	3.6769
224.753	3.68971
224.639	3.70047
224.537	3.71123
224.436	3.7284
224.323	3.74326
224.222	3.75813
224.121	3.76889
224.007	3.7817
223.906	3.79246
223.805	3.80733
223.692	3.82014
223.591	3.83295
223.491	3.84371
223.378	3.85653
223.277	3.86729
223.177	3.88215
223.064	3.89291
222.964	3.90573
222.864	3.91649
222.752	3.9293
222.652	3.93981
222.552	3.95262
222.44	3.96134
222.34	3.96979
222.24	3.97851
222.128	3.98902
222.029	4.00618
221.929	4.00824
221.818	4.02745
221.719	4.03386
221.619	4.04027
221.52	4.05103
221.409	4.05949
221.31	4.06821
221.211	4.07897
221.1	4.08743
221.001	4.09589
220.902	4.10229
220.791	4.11306
220.693	4.12152
220.595	4.13023
220.484	4.13869
220.385	4.1451
220.288	4.15586
220.177	4.16432
220.079	4.17303
219.981	4.17944
219.871	4.18585
219.773	4.19431
219.676	4.20277
219.565	4.20713
219.468	4.21789
219.371	4.2243
219.261	4.23071
219.164	4.23712
219.067	4.24557
218.957	4.25198
218.86	4.25839
218.764	4.26711
218.654	4.27121
218.558	4.27992
218.461	4.28633
218.352	4.29274
218.256	4.29915
218.159	4.30556
218.063	4.31197
217.954	4.31838
217.858	4.32248
217.762	4.3312
217.654	4.3353
217.558	4.34171
217.462	4.34837
217.354	4.35248
217.258	4.35888
217.163	4.36529
217.055	4.36965
216.96	4.37606
216.864	4.38042
216.757	4.38683
216.661	4.39093
216.566	4.39734
216.365	4.41016
216.269	4.41017
216.162	4.41658
216.068	4.42094
215.973	4.4253
215.866	4.4294
215.772	4.43376
215.677	4.43812
215.571	4.44248
215.476	4.44453
215.276	4.453
215.182	4.45736
215.088	4.46171
214.982	4.46377
214.888	4.46813
214.794	4.47223
214.701	4.47454
214.595	4.4766
214.501	4.48096
214.408	4.48506
214.303	4.48737
214.209	4.49148
214.116	4.49379
214.011	4.49584
213.918	4.5002
213.825	4.5043
213.72	4.50662
213.628	4.50867
213.535	4.51303
213.43	4.51508
213.338	4.51714
213.141	4.51945
213.048	4.52151
212.956	4.52587
212.761	4.53664
212.669	4.53869
212.565	4.54075
212.473	4.54306
212.381	4.54511
212.278	4.54947
212.186	4.55152
212.095	4.55153
211.992	4.55358
211.9	4.5559
211.809	4.55795
211.717	4.56
211.615	4.56231
211.524	4.56437
211.432	4.56642
211.33	4.56874
211.239	4.57079
211.148	4.57284
211.046	4.57515
210.956	4.57721
210.865	4.57926
210.763	4.58157
210.481	4.58799
210.39	4.588
210.3	4.59005
210.199	4.59211
210.109	4.59442
209.918	4.59648
209.638	4.60495
209.549	4.60726
209.358	4.60727
209.18	4.61138
209.08	4.61369
208.991	4.61574
208.902	4.61575
208.713	4.61781
208.436	4.62218
208.347	4.62218
208.071	4.62655
207.707	4.62862
207.334	4.63095
206.973	4.63507
206.787	4.63508
206.341	4.63741
204.906	4.63955
204.105	4.63755
203.84	4.63526
203.575	4.63322
203.047	4.63121
202.606	4.62893
202.261	4.6269
202.177	4.62486
202	4.62256
201.739	4.62053
201.397	4.61824
201.221	4.61621
201.045	4.61417
200.88	4.61187
200.705	4.60983
200.53	4.6078
200.192	4.60551
200.11	4.60347
199.936	4.59708
199.518	4.59505
199.173	4.58867
199.011	4.58638
198.839	4.58434
198.506	4.57796
198.335	4.57592
198.164	4.57362
198.003	4.57158
197.913	4.56954
197.753	4.56724
197.583	4.56521
197.334	4.56317
197.086	4.55884
197.006	4.55679
196.838	4.5545
196.591	4.55246
196.433	4.55042
196.344	4.54812
196.098	4.54404
195.941	4.54175
195.696	4.53971
195.608	4.53767
195.208	4.53129
194.878	4.52901
194.8	4.52697
194.722	4.52467
194.481	4.52263
194.239	4.5206
194.152	4.51625
193.759	4.51423
193.357	4.51195
