Uv/Vis Spectrum: Pyridazine
Formula: C4H4N2
CAS: 289-80-5
Melting point: - 8
Boiling point: 208
Instrument: Beckman DU
Origin: INSTITUTE OF ENERGY PROBLEMS OF CHEMICAL PHYSICS, RAS
Wavelength (nm)	Logarithm epsilon
209.9	2.51
210.25	2.485
210.6	2.466
210.95	2.446
211.3	2.441
212.01	2.421
212.37	2.397
212.72	2.387
213.08	2.377
213.44	2.372
213.8	2.377
214.53	2.362
215.26	2.367
215.63	2.367
215.99	2.367
216.36	2.372
217.11	2.397
217.85	2.402
218.23	2.407
218.61	2.421
218.99	2.451
219.37	2.456
219.75	2.47
220.51	2.49
220.9	2.5
221.29	2.515
221.67	2.53
222.06	2.559
222.85	2.574
223.24	2.584
223.63	2.598
224.03	2.613
224.43	2.643
224.83	2.648
225.23	2.667
225.63	2.677
226.03	2.692
226.84	2.736
227.25	2.761
227.66	2.766
228.07	2.78
228.48	2.8
228.9	2.82
229.73	2.844
230.15	2.854
230.56	2.859
230.99	2.879
231.83	2.908
232.26	2.938
232.69	2.943
233.11	2.952
233.55	2.972
234.41	3.002
234.85	3.016
235.28	3.021
235.72	3.036
236.16	3.046
237.05	3.075
237.94	3.1
238.39	3.11
238.84	3.12
239.29	3.125
240.66	3.125
241.58	3.115
242.04	3.11
242.5	3.105
242.97	3.105
243.44	3.11
244.85	3.12
245.8	3.1
246.28	3.07
246.76	3.056
247.73	2.977
248.21	2.957
248.7	2.943
249.19	2.943
250.18	2.923
251.17	2.884
251.67	2.864
252.17	2.864
252.68	2.834
253.18	2.761
253.69	2.682
254.2	2.648
254.71	2.534
255.23	2.495
255.74	2.421
256.26	2.377
256.78	2.313
257.3	2.274
257.83	2.269
258.36	2.22
258.88	2.195
259.42	2.17
259.95	2.121
260.48	2.092
261.02	2.077
261.56	2.052
262.1	2.033
262.65	2.028
263.19	2.023
263.74	2.018
264.85	2.013
265.4	2.018
266.52	2.028
267.09	2.028
267.65	2.033
268.22	2.048
268.79	2.072
269.94	2.077
270.51	2.082
271.09	2.097
272.26	2.116
273.44	2.136
274.03	2.146
274.63	2.156
275.22	2.175
276.43	2.2
277.03	2.2
277.64	2.215
278.25	2.239
278.86	2.239
279.48	2.264
280.1	2.254
280.72	2.269
281.97	2.293
283.24	2.313
283.87	2.318
285.15	2.343
286.44	2.362
287.09	2.372
287.75	2.377
289.06	2.387
290.39	2.392
291.06	2.397
292.41	2.421
293.76	2.441
294.45	2.436
295.14	2.446
296.52	2.451
298.62	2.456
299.33	2.461
300.04	2.466
301.47	2.466
302.91	2.466
303.64	2.461
304.37	2.451
305.1	2.456
306.58	2.446
308.08	2.441
308.83	2.426
309.59	2.421
310.35	2.426
311.11	2.411
312.65	2.377
313.42	2.372
314.2	2.362
315.77	2.338
317.35	2.308
318.15	2.293
318.96	2.293
319.76	2.254
320.57	2.23
321.39	2.21
322.21	2.19
323.03	2.161
323.86	2.156
324.69	2.111
325.52	2.092
326.36	2.067
327.21	2.067
328.06	2.008
328.91	1.993
329.77	1.964
330.63	1.905
331.5	1.895
332.37	1.866
333.24	1.811
334.12	1.797
335.01	1.772
335.9	1.708
336.79	1.669
337.69	1.605
338.6	1.59
339.51	1.507
340.42	1.477
341.34	1.369
342.26	1.359
343.19	1.32
343.5	1.27
343.81	1.266
344.13	1.261
344.44	1.256
344.75	1.251
345.06	1.246
345.7	1.2
347.6	1.13
348.23	1.09
350.16	1
