Uv/Vis Spectrum: 1,3-Diazine
Formula: C4H4N2
CAS: 289-95-2
Melting point: 22
Boiling point: 123.8
Instrument: Spectrophotometer SF-16
Origin: INSTITUTE OF ENERGY PROBLEMS OF CHEMICAL PHYSICS, RAS
Wavelength (nm)	Logarithm epsilon
210	2.93
211	2.86
212	2.85
213	2.79
214	2.76
215	2.72
216	2.68
217	2.66
218	2.64
219	2.64
220	2.63
221	2.63
222	2.64
223	2.66
224	2.7
225	2.72
226	2.76
227	2.81
228	2.9
229	2.94
230	2.98
231	3.01
232	3.04
233	3.07
234	3.1
235	3.14
236	3.17
237	3.2
238	3.23
239	3.28
240	3.28001
241	3.25
242	3.25
243	3.27
244	3.28
245	3.28
246	3.27
247	3.22
248	3.19
249	3.13
250	3.06002
251	2.95
252	2.81
253	2.69
254	2.57
255	2.5
256	2.44
257	2.39
258	2.38
259	2.37
260	2.36001
261	2.35
262	2.35
263	2.35
264	2.36
265	2.37
266	2.38
267	2.38
268	2.39
269	2.4
270	2.41
271	2.42
272	2.43
273	2.44
274	2.45
275	2.46
276	2.47
277	2.47
278	2.48
279	2.48
280	2.48001
281	2.48
282	2.47
283	2.47
284	2.46
285	2.45
286	2.44
287	2.42
288	2.41
289	2.39
290	2.36999
291	2.35
292	2.33
293	2.31
294	2.29
295	2.25
296	2.23
297	2.2
298	2.19
299	2.15
