Uv/Vis Spectrum: Sec-amylbenzene
Formula: C11H16
CAS: 29316-05-0
Boiling point: 199
Instrument: unknown
Origin: INSTITUTE OF ENERGY PROBLEMS OF CHEMICAL PHYSICS, RAS
Wavelength (nm)	Logarithm epsilon
225.2	1.571
225.25	1.571
225.29	1.566
225.33	1.566
225.42	1.507
225.63	1.472
225.84	1.44
226.05	1.405
226.26	1.375
226.47	1.334
226.69	1.308
226.9	1.289
227.11	1.25
227.32	1.229
227.51	1.202
227.74	1.183
227.95	1.171
228.17	1.157
228.32	1.149
228.49	1.144
228.78	1.139
229.04	1.137
229.24	1.137
229.44	1.139
229.68	1.14
229.87	1.142
230.07	1.148
230.28	1.158
230.55	1.179
230.77	1.193
230.92	1.206
231.13	1.218
231.39	1.237
231.55	1.25
231.76	1.27
232	1.292
232.19	1.308
232.4	1.326
232.61	1.343
232.76	1.356
233.03	1.375
233.2	1.387
233.46	1.405
233.67	1.419
233.82	1.43
234.09	1.446
234.3	1.463
234.5	1.474
234.72	1.484
234.94	1.496
235.15	1.507
235.36	1.524
235.57	1.535
235.72	1.545
235.99	1.556
236.21	1.566
236.42	1.581
236.66	1.594
236.84	1.604
237.05	1.615
237.26	1.622
237.43	1.632
237.69	1.644
237.88	1.653
238.11	1.664
238.28	1.673
238.53	1.683
238.7	1.693
238.96	1.702
239.16	1.712
239.38	1.72
239.59	1.73
239.79	1.739
240.01	1.75
240.23	1.76
240.44	1.77
240.64	1.778
240.86	1.788
241.08	1.796
241.3	1.807
241.5	1.814
241.71	1.822
241.93	1.831
242.13	1.836
242.35	1.841
242.55	1.844
242.76	1.849
242.96	1.855
243.19	1.86
243.4	1.862
243.59	1.866
243.82	1.87
244.03	1.874
244.25	1.884
244.46	1.894
244.67	1.908
244.88	1.919
245.09	1.93
245.3	1.945
245.48	1.958
245.68	1.972
245.94	1.99
246.15	2.003
246.36	2.014
246.57	2.024
246.78	2.04
247	2.05
247.21	2.061
247.42	2.069
247.63	2.072
247.84	2.072
248.05	2.071
248.27	2.069
248.48	2.066
248.69	2.061
248.9	2.055
249.11	2.05
249.32	2.048
249.53	2.048
249.75	2.05
249.96	2.056
250.17	2.064
250.38	2.078
250.59	2.092
250.8	2.107
251.02	2.122
251.23	2.142
251.44	2.164
251.65	2.182
251.86	2.199
252.07	2.211
252.28	2.216
252.5	2.22
252.71	2.22
252.92	2.216
253.13	2.211
253.34	2.206
253.55	2.203
253.77	2.201
253.98	2.202
254.19	2.205
254.4	2.211
254.61	2.211
254.82	2.206
255.04	2.195
255.25	2.178
255.46	2.164
255.67	2.153
255.88	2.148
256.09	2.148
256.39	2.152
256.52	2.159
256.73	2.177
256.94	2.197
257.15	2.226
257.36	2.252
257.57	2.27
257.79	2.284
258	2.292
258.21	2.299
258.42	2.301
258.63	2.301
258.84	2.299
259.06	2.29
259.27	2.269
259.48	2.259
259.69	2.257
259.9	2.26
260.11	2.27
260.32	2.298
260.54	2.305
260.75	2.307
260.96	2.303
261.12	2.295
261.21	2.283
261.27	2.275
261.36	2.265
261.51	2.246
261.64	2.226
261.76	2.196
261.89	2.168
262.02	2.136
262.14	2.115
262.27	2.101
262.4	2.087
262.52	2.077
262.65	2.069
262.78	2.064
262.91	2.071
263.03	2.101
263.16	2.122
263.29	2.145
263.41	2.163
263.54	2.178
263.67	2.189
263.79	2.195
263.92	2.198
264.05	2.199
264.17	2.199
264.3	2.198
264.43	2.195
264.56	2.19
264.68	2.183
264.81	2.172
264.94	2.159
265.06	2.146
265.19	2.133
265.32	2.115
265.44	2.101
265.57	2.086
265.7	2.072
265.83	2.056
265.95	2.041
266.08	2.028
266.21	2.017
266.29	2.017
266.33	2.019
266.46	2.064
266.59	2.108
266.71	2.146
266.84	2.175
266.9	2.183
266.99	2.192
267.14	2.197
267.35	2.202
267.48	2.202
267.6	2.201
267.75	2.197
267.89	2.191
267.98	2.18
268.11	2.161
268.24	2.14
268.36	2.112
268.49	2.086
268.62	2.058
268.74	2.028
268.87	1.996
269	1.973
269.13	1.945
269.25	1.917
269.38	1.889
269.51	1.854
269.63	1.817
269.76	1.785
269.89	1.744
270.01	1.709
270.14	1.676
270.27	1.648
270.39	1.609
270.52	1.566
270.65	1.519
270.78	1.484
270.9	1.446
271.03	1.412
271.16	1.375
271.28	1.334
271.41	1.308
271.54	1.26
271.66	1.218
271.79	1.195
271.92	1.158
272.05	1.132
272.17	1.089
272.3	1.074
