Uv/Vis Spectrum: Propen-2-ol
Formula: C3H6O
CAS: 29456-04-0
Boiling point: 95-97
Instrument: Zeiss PMQ II
Origin: INSTITUTE OF ENERGY PROBLEMS OF CHEMICAL PHYSICS, RAS
Wavelength (nm)	Logarithm epsilon
181.96	3.789
182.03	3.787
182.1	3.785
182.16	3.783
182.24	3.78
182.32	3.777
182.39	3.775
182.46	3.772
182.53	3.77
182.6	3.768
182.67	3.766
182.74	3.763
182.8	3.76
182.87	3.756
182.93	3.752
182.99	3.749
183.07	3.743
183.24	3.734
183.46	3.725
183.68	3.715
183.89	3.706
184.11	3.698
184.32	3.689
184.53	3.681
184.76	3.672
184.98	3.666
185.2	3.657
185.42	3.649
185.64	3.638
185.86	3.63
186.08	3.619
186.31	3.609
186.53	3.6
186.75	3.589
186.98	3.581
187.2	3.572
187.42	3.562
187.65	3.553
187.88	3.543
188.1	3.532
188.33	3.522
188.56	3.51
188.79	3.498
189.01	3.485
189.24	3.475
189.47	3.462
189.7	3.451
189.94	3.439
190.17	3.422
190.4	3.411
190.63	3.398
190.86	3.381
191.1	3.369
191.33	3.354
191.57	3.339
191.8	3.322
192.04	3.307
192.28	3.29
192.51	3.271
192.75	3.252
192.99	3.237
193.23	3.218
193.47	3.199
193.71	3.18
193.95	3.158
194.19	3.143
194.43	3.122
194.68	3.099
194.92	3.075
195.16	3.05
195.41	3.027
195.65	2.999
195.9	2.98
196.14	2.948
196.39	2.922
196.64	2.893
196.89	2.863
197.13	2.837
197.39	2.81
197.64	2.776
197.89	2.746
198.14	2.714
198.39	2.685
198.64	2.653
198.9	2.623
199.14	2.596
199.4	2.563
199.66	2.536
199.91	2.502
200.17	2.472
200.43	2.438
200.69	2.4
200.94	2.364
201.2	2.321
201.46	2.277
201.72	2.234
201.99	2.187
202.25	2.136
202.51	2.09
202.74	2.047
203.04	1.996
203.25	1.956
203.57	1.905
203.83	1.854
204.06	1.812
204.37	1.758
204.63	1.701
204.9	1.654
205.17	1.601
205.44	1.552
205.71	1.514
205.99	1.467
206.26	1.416
206.53	1.372
206.81	1.314
207.08	1.261
207.35	1.215
207.63	1.166
207.91	1.115
208.19	1.062
208.46	1.019
