Uv/Vis Spectrum: Carbazepine
Formula: C15H12N2O
CAS: 298-46-4
Melting point: 189.5-191
Instrument: Unicam SP 700
Origin: INSTITUTE OF ENERGY PROBLEMS OF CHEMICAL PHYSICS, RAS
Wavelength (nm)	Logarithm epsilon
205.62	4.302
206.47	4.33
207.33	4.354
208.18	4.378
209.03	4.402
210.22	4.422
211.41	4.439
212.78	4.453
214.31	4.456
215.84	4.456
217.38	4.453
218.74	4.439
220.1	4.422
221.3	4.405
222.49	4.384
223.34	4.36
224.36	4.337
225.39	4.316
226.07	4.289
226.92	4.265
227.77	4.237
228.79	4.217
229.81	4.196
231.01	4.179
232.37	4.162
233.73	4.148
235.27	4.148
236.8	4.148
238.33	4.155
239.87	4.152
241.23	4.142
242.59	4.128
243.96	4.111
245.32	4.094
246.51	4.077
247.7	4.056
248.56	4.032
249.58	4.008
250.26	3.981
251.11	3.957
251.79	3.93
252.64	3.902
253.33	3.875
254.18	3.851
255.03	3.824
255.88	3.8
256.73	3.776
257.76	3.755
258.95	3.735
260.48	3.735
261.84	3.748
263.04	3.769
264.4	3.783
265.59	3.8
266.61	3.82
267.81	3.841
269	3.861
270.02	3.882
271.21	3.902
272.41	3.919
273.6	3.94
274.79	3.957
276.16	3.974
277.35	3.991
278.71	4.005
280.07	4.019
281.44	4.029
282.8	4.042
284.33	4.049
285.7	4.06
287.23	4.063
288.76	4.066
290.3	4.06
291.83	4.049
293.19	4.039
294.56	4.025
295.92	4.008
297.11	3.988
298.13	3.967
299.33	3.95
300.35	3.926
301.2	3.895
302.56	3.882
303.41	3.858
304.44	3.834
305.29	3.81
306.14	3.786
307.16	3.762
307.84	3.735
308.7	3.711
309.55	3.687
310.4	3.663
311.08	3.635
311.93	3.608
312.61	3.581
313.3	3.553
313.81	3.526
314.66	3.499
315.17	3.471
315.85	3.444
316.53	3.417
317.04	3.389
317.73	3.362
318.24	3.335
318.92	3.307
319.43	3.28
320.11	3.252
320.62	3.225
321.13	3.198
321.64	3.17
322.16	3.143
322.84	3.116
323.35	3.085
323.86	3.058
324.37	3.03
324.88	2.999
325.39	2.969
325.9	2.941
326.41	2.91
326.93	2.88
327.44	2.852
327.95	2.825
328.29	2.794
328.8	2.767
329.31	2.739
329.82	2.712
330.16	2.681
330.84	2.654
331.36	2.623
331.7	2.592
332.21	2.565
332.89	2.538
333.23	2.507
333.74	2.48
334.25	2.452
334.76	2.421
335.1	2.391
335.61	2.363
336.13	2.336
336.64	2.305
336.98	2.274
337.49	2.247
338	2.22
338.51	2.189
338.85	2.158
339.36	2.131
339.87	2.103
340.21	2.073
340.73	2.042
341.07	2.011
341.58	1.984
342.09	1.953
342.43	1.922
342.94	1.891
343.28	1.861
343.79	1.833
344.13	1.802
344.64	1.772
344.99	1.741
345.33	1.71
345.84	1.683
346.35	1.655
346.69	1.625
347.03	1.594
347.54	1.566
347.88	1.536
348.39	1.505
348.73	1.474
349.07	1.443
349.59	1.416
349.93	1.385
350.44	1.354
350.78	1.324
351.12	1.293
351.46	1.262
351.97	1.235
352.31	1.204
352.65	1.173
353.16	1.142
353.5	1.112
353.84	1.081
354.19	1.05
354.7	1.023
355.04	0.992
355.38	0.961
355.72	0.93
356.06	0.9
356.4	0.869
356.74	0.838
357.25	0.807
