Uv/Vis Spectrum: 1,2,3,4,7,8,9,10-octahydrodibenzo[b,h]biphenylene
Formula: C20H20
CAS: 30013-93-5
Melting point: 195-198
Instrument: unknown
Origin: INSTITUTE OF ENERGY PROBLEMS OF CHEMICAL PHYSICS, RAS
Wavelength (nm)	Logarithm epsilon
220.897	4.153
222.397	4.126
223.897	4.111
225.397	4.104
226.897	4.104
228.397	4.11
229.897	4.121
231.397	4.136
232.897	4.155
234.397	4.177
235.897	4.2
237.397	4.224
238.897	4.248
240.397	4.274
241.897	4.305
243.397	4.344
244.775	4.392
246.275	4.467
247.775	4.465
249.275	4.435
250.775	4.414
252.275	4.431
253.458	4.488
254.458	4.589
255.458	4.631
256.458	4.651
257.458	4.613
257.8	4.523
258.8	4.369
259.8	4.242
260.8	4.138
261.8	4.052
262.8	3.982
263.8	3.924
264.8	3.875
265.8	3.833
266.8	3.796
267.8	3.763
268.8	3.732
269.8	3.702
270.8	3.673
271.8	3.644
272.8	3.617
273.8	3.59
274.8	3.564
275.8	3.539
276.8	3.516
277.8	3.494
278.8	3.475
279.8	3.457
280.8	3.44
281.368	3.423
282.368	3.41
283.368	3.393
284.368	3.371
285.368	3.348
286.368	3.323
287.368	3.299
288.368	3.275
289.368	3.253
290.368	3.231
291.368	3.211
292.368	3.193
293.368	3.175
294.368	3.159
295.368	3.143
296.368	3.127
297.368	3.112
298.368	3.096
299.368	3.081
300.368	3.065
301.368	3.049
302.368	3.033
303.368	3.017
304.368	3.002
305.368	2.987
306.368	2.973
307.368	2.961
308.368	2.951
309.368	2.943
310.368	2.937
311.368	2.935
312.368	2.935
313.368	2.939
314.368	2.945
315.368	2.954
316.368	2.963
317.368	2.973
318.27	2.982
319.27	2.987
320.27	2.991
321.27	2.995
322.27	3.001
323.27	3.01
324.27	3.023
325.27	3.041
326.27	3.062
327.27	3.087
328.27	3.115
329.27	3.145
330.27	3.176
331.27	3.208
332.27	3.238
333.27	3.267
334.27	3.294
335.27	3.316
336.27	3.335
337.27	3.35
338.27	3.36
339.27	3.368
340.27	3.373
341.27	3.377
342.27	3.382
343.27	3.392
344.27	3.411
344.319	3.412
345.319	3.442
346.319	3.466
347.319	3.488
348.319	3.511
349.319	3.536
350.319	3.562
351.319	3.59
352.319	3.617
353.319	3.641
354.319	3.662
355.319	3.676
356.319	3.682
357.319	3.678
358.319	3.666
359.319	3.645
360.319	3.62
360.755	3.605
361.755	3.579
362.755	3.568
363.755	3.567
364.755	3.574
365.755	3.584
366.755	3.597
367.755	3.61
368.755	3.625
369.755	3.644
370.678	3.663
371.678	3.706
372.678	3.749
373.678	3.783
374.678	3.805
375.678	3.811
376.678	3.798
377.678	3.767
378.678	3.718
379.678	3.655
380.678	3.584
381.532	3.525
382.532	3.449
383.532	3.378
384.532	3.311
385.532	3.247
386.532	3.187
387.532	3.13
388.532	3.075
389.532	3.023
390.532	2.973
391.532	2.924
392.532	2.877
393.532	2.832
394.532	2.789
395.532	2.746
396.532	2.705
397.532	2.665
398.532	2.626
399.532	2.589
400.532	2.552
401.532	2.517
402.532	2.483
403.532	2.45
404.532	2.418
405.532	2.388
406.532	2.358
407.532	2.33
408.532	2.302
409.532	2.276
410.532	2.251
411.532	2.227
412.532	2.203
413.532	2.181
414.532	2.159
415.532	2.137
416.532	2.116
417.532	2.094
