Uv/Vis Spectrum: Benzene, 2-propenyl-
Formula: C9H10
CAS: 300-57-2
Melting point: -40
Boiling point: 156
Instrument: n.i.g.
Origin: INSTITUTE OF ENERGY PROBLEMS OF CHEMICAL PHYSICS, RAS
Wavelength (nm)	Logarithm epsilon
391.644	4.00102
391.773	4.00279
391.918	4.00467
392.452	4.02683
392.985	4.03891
393.131	4.04168
393.26	4.04533
393.389	4.04899
393.535	4.05276
393.664	4.05464
393.793	4.0583
393.923	4.06018
394.472	4.07403
394.602	4.0768
395.006	4.086
396.493	4.10816
396.622	4.11004
396.752	4.11093
396.897	4.11281
397.026	4.11647
397.156	4.11924
397.301	4.123
397.43	4.12477
397.56	4.12666
397.705	4.13043
397.834	4.13408
397.964	4.13774
398.109	4.14051
398.239	4.14151
398.368	4.14428
399.451	4.16366
399.58	4.16544
400.922	4.18582
401.067	4.18771
401.471	4.19325
401.601	4.1969
401.73	4.19779
401.875	4.19967
402.005	4.20156
402.134	4.20898
402.28	4.21075
402.409	4.21352
402.538	4.21541
403.217	4.22283
403.751	4.23203
403.88	4.23391
404.559	4.24222
404.688	4.24399
405.496	4.25518
405.642	4.25795
405.771	4.25884
406.046	4.26161
406.305	4.26249
406.45	4.26349
406.579	4.26526
407.258	4.2708
407.387	4.27269
407.517	4.27357
407.792	4.27634
409.537	4.29119
411.687	4.30504
411.833	4.30593
412.091	4.30692
412.221	4.30781
412.495	4.3087
412.625	4.30969
413.029	4.31058
413.304	4.31147
413.578	4.31246
413.837	4.31335
414.112	4.31424
414.387	4.31523
414.645	4.31612
415.049	4.317
415.324	4.318
415.858	4.31889
417.474	4.32166
418.816	4.32254
421.774	4.32354
422.048	4.32166
422.178	4.32077
422.452	4.32077
422.857	4.31889
423.131	4.317
423.261	4.31612
423.39	4.31523
423.536	4.31335
423.665	4.31147
423.794	4.30969
423.94	4.3087
424.069	4.30692
424.198	4.30504
427.706	4.26715
427.835	4.26526
427.964	4.26249
428.11	4.26072
428.239	4.25884
428.369	4.25695
428.514	4.25518
428.643	4.25418
428.773	4.25241
428.918	4.25053
429.048	4.24864
429.322	4.24499
429.452	4.2431
430.26	4.2348
430.793	4.22649
430.923	4.2246
431.601	4.21729
432.006	4.20798
432.135	4.2061
432.28	4.20521
432.539	4.20244
432.685	4.19967
432.814	4.19779
432.943	4.19602
433.218	4.19325
433.347	4.18948
433.493	4.18671
433.622	4.18394
433.751	4.18028
433.897	4.1784
434.155	4.17663
434.155	4.1794
434.155	4.1794
434.301	4.17563
434.964	4.16455
436.984	4.1322
437.113	4.12854
437.259	4.12666
437.388	4.12389
437.663	4.11924
437.792	4.11746
437.922	4.11558
438.067	4.11192
438.196	4.11004
438.326	4.10816
438.471	4.10539
439.005	4.09807
439.134	4.09619
439.813	4.08688
440.072	4.08411
440.346	4.07857
440.476	4.07492
440.88	4.06849
441.154	4.06472
441.429	4.06295
441.559	4.06295
441.688	4.06018
441.833	4.0583
442.092	4.05553
442.238	4.05276
442.367	4.05087
442.642	4.04722
442.771	4.04345
442.9	4.04256
443.175	4.03891
443.304	4.03614
443.45	4.0306
443.579	4.0296
443.708	4.0296
443.838	4.02683
443.983	4.02406
444.113	4.02318
444.242	4.02129
444.387	4.01852
444.517	4.01575
444.646	4.01398
444.791	4.0121
447.216	3.97786
447.345	3.97609
447.75	3.96678
447.879	3.96401
448.024	3.96312
448.154	3.96035
448.283	3.95758
448.412	3.9557
448.558	3.95382
448.687	3.95293
448.816	3.95016
448.962	3.94828
449.091	3.94651
449.366	3.94374
449.495	3.94185
449.625	3.94097
449.77	3.93908
450.578	3.928
450.707	3.92701
451.92	3.91138
452.049	3.9095
452.728	3.89654
452.857	3.89476
452.987	3.89288
453.262	3.89011
453.391	3.88823
453.536	3.88546
453.666	3.88457
453.795	3.88269
453.94	3.8818
454.07	3.8818
454.199	3.8808
454.474	3.87715
454.603	3.87626
454.878	3.87249
455.815	3.86241
456.769	3.85222
456.898	3.85122
457.561	3.8448
457.707	3.84291
457.836	3.84203
458.369	3.84014
458.644	3.83837
458.774	3.83737
459.048	3.83183
459.323	3.82818
459.452	3.82818
459.582	3.82729
459.727	3.82629
459.856	3.82452
460.131	3.82175
460.261	3.81987
460.535	3.8171
460.665	3.81621
460.794	3.81621
460.94	3.81521
461.069	3.81344
461.473	3.80967
461.602	3.80879
461.877	3.80502
462.006	3.80325
462.136	3.80136
462.281	3.80136
462.41	3.80048
462.54	3.79948
462.685	3.79671
462.944	3.79494
463.089	3.79494
463.493	3.79394
463.752	3.79028
463.897	3.79028
464.156	3.7884
464.302	3.78663
464.431	3.78663
464.56	3.78563
464.835	3.78198
464.964	3.78109
465.11	3.78109
465.239	3.78009
465.368	3.77644
465.514	3.77555
465.918	3.77278
466.047	3.77178
468.197	3.75605
468.472	3.75328
468.876	3.74874
469.005	3.74774
469.684	3.7432
