Uv/Vis Spectrum: Isoxazole, 3,5-dimethyl-
Formula: C5H7NO
CAS: 300-87-8
Instrument: Unicam SP 700
Origin: INSTITUTE OF ENERGY PROBLEMS OF CHEMICAL PHYSICS, RAS
Wavelength (nm)	Logarithm epsilon
196.59	3.615
197.19	3.623
197.78	3.631
198.38	3.639
198.99	3.647
199.6	3.655
200.21	3.663
200.82	3.671
201.44	3.68
202.07	3.688
202.69	3.696
203.32	3.706
203.96	3.714
204.6	3.722
205.24	3.73
205.89	3.738
206.54	3.746
207.19	3.754
207.95	3.762
208.71	3.77
209.47	3.776
210.24	3.782
211.02	3.789
211.8	3.794
212.69	3.797
213.58	3.8
214.48	3.803
215.39	3.802
216.31	3.798
217.13	3.792
217.96	3.784
218.69	3.774
219.42	3.765
220.06	3.755
220.59	3.744
221.23	3.733
221.76	3.722
222.19	3.709
222.74	3.698
223.17	3.685
223.5	3.672
223.94	3.659
224.26	3.647
224.71	3.634
225.04	3.621
225.37	3.608
225.7	3.595
226.04	3.583
226.37	3.568
226.6	3.554
226.94	3.539
227.27	3.525
227.5	3.511
227.84	3.496
228.07	3.482
228.41	3.469
228.64	3.455
228.87	3.44
229.21	3.426
229.44	3.411
229.79	3.399
230.02	3.384
230.25	3.37
230.48	3.355
230.71	3.341
230.95	3.327
231.18	3.312
231.42	3.298
231.65	3.283
231.88	3.269
232.12	3.255
232.24	3.24
232.47	3.226
232.71	3.212
232.95	3.197
233.07	3.183
233.3	3.168
233.47	3.152
233.73	3.131
234	3.108
234.35	3.074
234.88	3.028
235.36	2.984
235.72	2.942
236.2	2.893
236.93	2.816
237.18	2.786
237.42	2.762
237.67	2.732
237.92	2.701
238.17	2.676
238.45	2.647
238.71	2.616
238.91	2.593
239.16	2.562
239.41	2.525
239.66	2.49
239.91	2.463
240.17	2.437
240.42	2.407
240.67	2.378
240.93	2.348
241.18	2.317
241.43	2.292
241.69	2.26
241.95	2.231
242.2	2.209
242.46	2.191
242.72	2.164
242.97	2.135
243.23	2.11
243.49	2.079
243.75	2.05
244.01	2.018
244.27	1.994
244.53	1.964
244.8	1.935
245.06	1.905
245.32	1.874
245.58	1.847
245.85	1.822
246.11	1.802
246.38	1.78
246.64	1.751
246.91	1.724
247.18	1.697
247.44	1.667
247.71	1.636
247.98	1.611
248.25	1.58
248.52	1.551
248.79	1.521
249.06	1.489
249.33	1.459
249.61	1.431
249.84	1.416
250.07	1.393
250.37	1.367
250.7	1.34
250.98	1.315
251.25	1.287
251.53	1.27
251.81	1.247
252.08	1.23
252.36	1.212
252.64	1.193
252.92	1.18
253.2	1.166
253.48	1.152
253.76	1.139
254.04	1.128
254.33	1.118
254.61	1.107
254.89	1.097
255.18	1.086
255.46	1.075
255.75	1.072
256.04	1.064
256.32	1.056
256.61	1.048
256.9	1.04
257.19	1.032
257.48	1.024
257.77	1.017
258.06	1.009
