Uv/Vis Spectrum: 4-(4'-methoxyphenyl)azo-1-naphthol
Formula: C17H14N2O2
CAS: 3009-53-8
Instrument: Shimadzu MPS-50 L
Origin: INSTITUTE OF ENERGY PROBLEMS OF CHEMICAL PHYSICS, RAS
Wavelength (nm)	Logarithm epsilon
319.446	3.773
321.446	3.778
323.446	3.779
325.446	3.78
327.446	3.78
329.446	3.779
331.446	3.779
333.446	3.779
335.446	3.781
337.446	3.784
339.446	3.788
341.446	3.795
343.446	3.803
345.446	3.814
347.446	3.827
349.446	3.843
351.446	3.86
353.446	3.88
355.446	3.901
357.446	3.925
359.446	3.949
361.446	3.975
363.446	4.001
365.446	4.028
367.446	4.054
369.446	4.079
371.446	4.103
373.446	4.125
375.446	4.144
376.983	4.163
378.983	4.181
380.983	4.196
382.983	4.208
384.983	4.218
386.983	4.227
388.983	4.234
390.983	4.241
392.983	4.248
394.983	4.253
396.983	4.257
398.983	4.26
400.983	4.261
402.983	4.261
404.983	4.258
406.983	4.253
408.983	4.245
410.983	4.234
412.983	4.22
414.983	4.205
416.983	4.187
418.983	4.168
420.983	4.149
423.481	4.126
425.481	4.11
427.481	4.094
429.481	4.079
431.481	4.063
433.481	4.048
435.481	4.033
437.481	4.019
439.481	4.006
441.481	3.993
443.481	3.981
445.481	3.97
447.481	3.96
449.481	3.95
451.481	3.94
453.481	3.931
455.481	3.923
457.481	3.915
459.481	3.908
461.281	3.9
463.281	3.898
465.281	3.894
467.281	3.889
469.281	3.884
471.281	3.881
473.281	3.879
475.281	3.878
477.281	3.877
479.281	3.875
481.281	3.872
483.281	3.868
485.281	3.861
487.281	3.853
489.281	3.846
491.281	3.841
493.137	3.84
495.06	3.841
497.06	3.838
499.06	3.834
501.06	3.831
503.06	3.828
505.06	3.824
507.06	3.819
509.06	3.814
511.06	3.808
513.06	3.801
515.06	3.793
517.06	3.785
519.06	3.775
521.06	3.764
523.06	3.752
525.06	3.74
527.06	3.726
529.06	3.711
531.06	3.696
533.06	3.68
535.06	3.664
537.06	3.646
539.06	3.628
541.06	3.61
543.06	3.591
545.06	3.571
547.06	3.55
549.06	3.529
551.06	3.507
553.06	3.484
555.06	3.459
557.06	3.434
559.06	3.406
561.06	3.377
563.06	3.345
565.06	3.311
567.06	3.273
569.06	3.231
570.333	3.202
