Uv/Vis Spectrum: Sulfide, isopropyl phenyl
Formula: C9H12S
CAS: 3019-20-3
Boiling point: 89-90/ 14 mm
Instrument: Beckman DU
Origin: INSTITUTE OF ENERGY PROBLEMS OF CHEMICAL PHYSICS, RAS
Wavelength (nm)	Logarithm epsilon
214.32	3.938
214.62	3.938
214.91	3.938
215.21	3.938
215.51	3.938
216.11	3.935
218.79	3.901
219.69	3.88
220.58	3.843
221.48	3.825
222.37	3.776
223.27	3.754
224.16	3.718
225.06	3.669
225.95	3.647
226.85	3.586
227.74	3.571
228.64	3.525
229.53	3.51
230.43	3.491
231.32	3.442
232.22	3.387
233.11	3.335
234.9	3.283
235.79	3.268
236.69	3.256
237.58	3.256
240.27	3.289
241.16	3.299
242.06	3.317
242.95	3.354
243.85	3.369
244.74	3.406
245.64	3.418
246.53	3.452
247.43	3.479
248.32	3.522
249.22	3.543
250.11	3.586
251.01	3.614
251.9	3.632
252.8	3.65
253.69	3.666
254.59	3.687
255.48	3.721
256.38	3.736
258.17	3.739
259.96	3.724
260.85	3.718
261.75	3.693
263.54	3.666
264.43	3.635
265.33	3.611
266.22	3.601
267.11	3.556
268.01	3.522
268.9	3.5
269.8	3.479
270.69	3.455
271.59	3.427
272.48	3.393
273.38	3.384
274.27	3.326
275.17	3.305
276.06	3.28
276.96	3.253
277.85	3.216
278.75	3.195
279.64	3.155
280.54	3.14
281.43	3.094
282.33	3.048
283.22	3.008
284.12	2.938
285.01	2.91
285.91	2.889
286.8	2.837
287.7	2.769
288.59	2.693
289.49	2.613
291.28	2.558
292.17	2.503
293.07	2.439
293.96	2.363
294.86	2.341
295.75	2.265
296.65	2.243
297.54	2.176
