Uv/Vis Spectrum: Silane, dimethoxymethylphenyl-
Formula: C9H14O2Si
CAS: 3027-21-2
Boiling point: 199-200
Instrument: SF-4
Origin: INSTITUTE OF ENERGY PROBLEMS OF CHEMICAL PHYSICS, RAS
Wavelength (nm)	Logarithm epsilon
230	2.162
230.39	2.123
230.79	2.08
231.02	2.056
231.53	1.998
232.03	1.937
232.54	1.863
233.05	1.778
233.56	1.705
234.07	1.642
234.58	1.591
235.08	1.562
235.59	1.547
236.1	1.539
236.61	1.547
237.12	1.555
237.63	1.577
238.14	1.597
238.64	1.624
239.15	1.649
239.66	1.678
240.17	1.71
240.68	1.755
241.19	1.791
241.69	1.821
242.2	1.856
242.71	1.888
243.22	1.918
243.73	1.947
244.24	1.976
244.75	2.001
245.25	2.027
245.76	2.046
246.27	2.065
246.78	2.077
247.29	2.09
247.8	2.101
248.31	2.111
248.81	2.128
249.32	2.147
249.83	2.171
250.34	2.201
250.85	2.226
251.36	2.252
251.86	2.281
252.37	2.306
252.92	2.339
253.02	2.343
253.09	2.345
253.16	2.346
253.23	2.348
253.33	2.349
253.49	2.351
253.64	2.352
253.81	2.353
253.98	2.353
254.15	2.353
254.28	2.351
254.39	2.35
254.48	2.348
254.59	2.345
254.73	2.342
254.83	2.34
255.01	2.338
255.17	2.338
255.34	2.338
255.53	2.339
255.68	2.343
255.85	2.349
256.02	2.356
256.19	2.369
256.36	2.377
256.53	2.388
256.69	2.4
256.86	2.41
257.03	2.424
257.2	2.438
257.37	2.451
257.54	2.461
257.71	2.47
257.88	2.476
258.05	2.483
258.22	2.491
258.39	2.499
258.56	2.506
258.73	2.511
258.9	2.517
259.07	2.523
259.24	2.525
259.41	2.526
259.58	2.526
259.75	2.525
259.92	2.524
260.08	2.52
260.25	2.515
260.42	2.505
260.59	2.497
260.76	2.49
260.93	2.483
261.1	2.476
261.27	2.472
261.44	2.471
261.61	2.47
261.78	2.47
261.95	2.47
262.12	2.472
262.29	2.474
262.46	2.481
262.63	2.491
262.8	2.5
262.97	2.511
263.14	2.523
263.31	2.538
263.49	2.551
263.64	2.563
263.81	2.574
263.98	2.587
264.15	2.599
264.32	2.607
264.48	2.611
264.66	2.611
264.84	2.607
265.01	2.601
265.2	2.595
265.43	2.587
265.66	2.576
265.88	2.562
266.1	2.546
266.27	2.532
266.44	2.518
266.61	2.502
266.78	2.486
266.95	2.47
267.12	2.458
267.29	2.442
267.46	2.428
267.63	2.412
267.8	2.402
267.97	2.39
268.14	2.377
268.31	2.365
268.47	2.358
268.64	2.357
268.81	2.358
268.98	2.369
269.16	2.386
269.32	2.402
269.49	2.414
269.66	2.427
269.83	2.442
270	2.458
270.17	2.472
270.34	2.488
270.51	2.495
270.68	2.497
270.85	2.498
271.02	2.498
271.19	2.495
271.36	2.49
271.53	2.478
271.69	2.461
271.86	2.442
272.01	2.425
272.17	2.407
272.37	2.382
272.52	2.363
272.71	2.341
272.88	2.324
273.05	2.306
273.22	2.28
273.39	2.251
273.56	2.221
273.7	2.191
273.9	2.157
274.04	2.127
274.22	2.097
274.41	2.063
274.58	2.029
274.75	2.001
274.92	1.964
275.08	1.922
275.25	1.888
275.42	1.852
275.59	1.817
275.76	1.778
275.83	1.759
275.93	1.745
276.09	1.711
276.2	1.688
276.32	1.662
276.45	1.634
276.58	1.612
276.68	1.591
276.82	1.563
276.9	1.548
277.13	1.506
277.54	1.435
277.97	1.371
278.39	1.31
278.81	1.238
279.24	1.171
279.69	1.085
280.08	0.995
280.51	0.833
280.93	0.569
