Uv/Vis Spectrum: 6,13-Pentacenedione
Formula: C22H12O2
CAS: 3029-32-1
Instrument: Beckman DU
Origin: INSTITUTE OF ENERGY PROBLEMS OF CHEMICAL PHYSICS, RAS
Wavelength (nm)	Logarithm epsilon
277.2	4.958
280.4	5.032
282.55	5.082
286.8	5.181
288.4	5.212
290	5.238
291.36	5.254
293.2	5.26
296.4	5.26
298.04	5.249
299.6	5.216
301.2	5.173
302.8	5.129
304.72	5.051
306	5.006
307.3	4.957
309.2	4.875
310.73	4.823
312.31	4.786
314	4.748
315.6	4.713
317.2	4.678
318.8	4.639
320.4	4.612
322	4.586
323.6	4.551
324.94	4.532
326.5	4.508
328.07	4.479
330	4.446
331.4	4.423
332.87	4.393
334.63	4.362
336.4	4.332
338.04	4.302
339.6	4.271
341.34	4.229
342.8	4.197
344.4	4.157
346	4.122
347.6	4.096
349.25	4.062
352.4	4.035
354	4.035
355.46	4.038
357.2	4.053
358.8	4.074
360.4	4.096
362	4.114
363.6	4.14
366.8	4.171
368.4	4.179
370	4.175
373.65	4.19
376.16	4.2
378.02	4.218
379.6	4.232
381.2	4.258
383.02	4.284
384.4	4.306
386	4.328
388.8	4.366
390.76	4.384
392.4	4.394
394.28	4.395
395.75	4.387
397.2	4.367
398.8	4.328
400.4	4.28
402	4.219
403.28	4.171
405.2	4.088
406.8	4.009
407.94	3.96
409.39	3.904
411.6	3.799
413.2	3.703
414.8	3.619
416.4	3.523
418	3.422
419.6	3.317
420.71	3.264
422.8	3.164
424.4	3.116
426	3.064
