Uv/Vis Spectrum: 1-Pyrenecarboxaldehyde
Formula: C17H10O
CAS: 3029-19-4
Melting point: 123-126
Instrument: unknown
Origin: INSTITUTE OF ENERGY PROBLEMS OF CHEMICAL PHYSICS, RAS
Wavelength (nm)	Logarithm epsilon
221.66	4.333
222.83	4.358
223.99	4.383
225.15	4.408
225.99	4.438
226.98	4.463
227.98	4.492
229.14	4.517
230.31	4.542
231.64	4.558
232.28	4.564
233.13	4.558
234.3	4.537
235.46	4.513
236.46	4.483
237.62	4.463
238.32	4.454
239.12	4.45
239.89	4.457
240.45	4.471
241	4.482
241.78	4.487
242.49	4.485
243.28	4.475
243.76	4.464
244.61	4.454
245.44	4.453
246.1	4.458
247.43	4.475
248.09	4.482
248.63	4.48
248.93	4.475
249.73	4.461
250.76	4.425
251.29	4.399
251.59	4.375
252.09	4.35
252.59	4.312
253.08	4.287
253.58	4.25
254.08	4.229
254.58	4.192
255.08	4.167
255.58	4.142
256.08	4.108
256.58	4.083
257.07	4.05
257.78	4.016
258.23	3.987
258.57	3.958
259.12	3.931
259.57	3.904
260.07	3.883
260.69	3.865
261.56	3.862
262.06	3.867
262.56	3.875
263	3.886
263.56	3.917
264.04	3.934
264.64	3.95
265.55	3.958
266.05	3.962
266.55	3.967
267.05	3.975
267.55	3.983
268.07	3.992
268.55	4.008
269.19	4.029
269.54	4.046
270.04	4.067
270.54	4.092
271.04	4.117
271.54	4.146
272.04	4.171
272.54	4.196
273.04	4.221
273.53	4.246
274.03	4.267
274.53	4.283
275.03	4.287
275.53	4.271
276.03	4.25
276.53	4.233
276.8	4.223
277.52	4.213
278.02	4.208
278.52	4.208
279.02	4.208
280.02	4.217
280.52	4.225
280.97	4.232
281.51	4.246
282.01	4.287
282.51	4.325
283.01	4.346
283.51	4.379
284.01	4.408
284.51	4.429
285.01	4.463
285.5	4.487
286	4.525
286.5	4.55
287	4.567
287.5	4.571
287.83	4.561
288.2	4.522
288.65	4.476
289	4.438
289.55	4.382
289.99	4.338
290.49	4.283
290.99	4.246
291.49	4.2
291.99	4.142
292.49	4.1
292.9	4.069
293.35	4.035
293.8	3.996
294.48	3.954
294.98	3.908
295.48	3.854
295.98	3.812
296.48	3.767
296.98	3.721
297.47	3.683
297.97	3.625
298.49	3.57
298.86	3.534
299.23	3.497
299.67	3.462
300.08	3.437
300.92	3.404
301.62	3.388
302.24	3.375
302.81	3.368
303.46	3.367
304.08	3.37
304.53	3.379
304.96	3.392
305.45	3.404
305.95	3.421
306.45	3.442
306.95	3.458
307.51	3.469
307.95	3.475
308.45	3.479
308.95	3.483
309.44	3.487
309.93	3.49
310.42	3.493
310.94	3.496
311.44	3.5
311.83	3.506
312.34	3.512
312.94	3.521
313.43	3.529
313.93	3.538
314.43	3.546
314.87	3.554
315.43	3.562
315.91	3.572
316.33	3.579
316.93	3.587
317.41	3.597
317.95	3.604
318.42	3.612
319.42	3.625
319.9	3.632
320.42	3.642
320.94	3.652
321.42	3.663
321.9	3.672
322.41	3.683
322.91	3.692
323.41	3.704
323.81	3.714
324.41	3.725
324.96	3.737
325.41	3.75
325.96	3.763
326.4	3.775
326.9	3.788
327.41	3.801
327.87	3.812
328.4	3.825
328.9	3.833
329.4	3.846
329.89	3.854
330.39	3.867
330.89	3.879
331.39	3.892
331.89	3.904
332.39	3.913
332.89	3.925
333.38	3.934
333.88	3.942
334.38	3.95
334.88	3.962
335.38	3.971
335.88	3.983
336.38	3.992
336.88	4.004
337.41	4.016
337.87	4.025
338.37	4.037
338.87	4.046
339.42	4.053
339.87	4.062
340.24	4.071
340.87	4.083
341.4	4.091
341.86	4.1
342.36	4.108
342.86	4.117
343.36	4.125
343.86	4.133
344.36	4.146
344.79	4.157
345.36	4.167
345.76	4.178
346.35	4.188
346.85	4.196
347.4	4.203
347.85	4.213
348.35	4.217
348.85	4.225
349.34	4.232
349.86	4.236
350.34	4.242
350.84	4.246
351.34	4.254
351.84	4.263
352.39	4.272
352.84	4.279
353.34	4.287
353.83	4.296
354.33	4.304
354.78	4.314
355.38	4.323
355.83	4.329
356.33	4.333
356.83	4.342
357.33	4.346
357.82	4.354
358.32	4.362
358.72	4.368
359.19	4.375
359.77	4.381
360.32	4.388
360.67	4.391
361.16	4.395
361.49	4.398
362.1	4.401
362.81	4.404
363.31	4.404
363.77	4.402
364.24	4.398
364.82	4.391
365.31	4.379
365.8	4.358
366.3	4.321
366.8	4.263
367.14	4.255
367.8	4.25
368.32	4.252
368.8	4.258
369.35	4.272
369.79	4.287
370.29	4.304
370.79	4.325
371.29	4.342
371.78	4.354
372.32	4.361
372.79	4.362
373.29	4.358
373.79	4.35
374.28	4.342
374.84	4.329
375.28	4.317
375.78	4.3
376.28	4.279
376.78	4.258
377.28	4.242
377.78	4.225
378.17	4.211
378.77	4.192
379.27	4.175
379.77	4.154
380.27	4.138
380.77	4.121
381.17	4.109
381.77	4.092
382.17	4.08
382.59	4.068
383.09	4.052
383.55	4.035
384.26	4.017
384.76	4.013
385.26	4.013
385.76	4.017
386.25	4.021
386.75	4.033
387.25	4.054
387.75	4.079
388.25	4.112
388.75	4.162
389.25	4.213
389.75	4.254
390.24	4.312
390.64	4.347
391.24	4.392
391.74	4.425
392.02	4.432
392.31	4.426
392.8	4.365
393.24	4.317
393.74	4.233
394.23	4.154
394.73	4.071
395.23	3.95
395.73	3.829
396.23	3.729
396.58	3.66
397.23	3.546
397.73	3.458
398.22	3.354
398.72	3.212
399.22	3.112
399.72	3.008
400.22	2.913
400.72	2.796
401.22	2.704
401.72	2.571
402.21	2.462
402.71	2.375
403.21	2.292
