Uv/Vis Spectrum: Phenazine, 5-oxide
Formula: C12H8N2O
CAS: 304-81-4
Melting point: 266
Instrument: Perkin-Elmer 137
Origin: INSTITUTE OF ENERGY PROBLEMS OF CHEMICAL PHYSICS, RAS
Wavelength (nm)	Logarithm epsilon
342.95	3.401
343.75	3.403
345.56	3.413
347.02	3.421
349.66	3.434
351.64	3.446
352.18	3.451
352.73	3.457
353.32	3.463
353.78	3.467
354.36	3.474
354.9	3.482
355.44	3.487
355.99	3.495
356.57	3.501
357.07	3.506
357.62	3.512
358.16	3.52
358.71	3.528
359.18	3.536
359.79	3.544
360.34	3.551
360.88	3.562
361.42	3.57
361.97	3.584
362.51	3.587
363.05	3.597
363.6	3.601
364.14	3.604
364.68	3.611
365.23	3.617
365.77	3.62
366.31	3.63
366.86	3.633
367.4	3.639
367.94	3.645
368.49	3.663
369.03	3.68
369.57	3.694
370.12	3.707
370.66	3.72
371.2	3.73
371.75	3.735
372.29	3.742
372.83	3.742
373.38	3.744
373.92	3.747
374.47	3.749
375.01	3.749
375.55	3.749
376.1	3.749
376.64	3.747
377.18	3.749
377.73	3.749
378.27	3.749
378.81	3.749
379.36	3.749
379.9	3.752
380.44	3.754
380.99	3.754
381.8	3.759
382.62	3.768
383.16	3.777
383.7	3.796
384.25	3.807
384.79	3.813
385.33	3.829
385.88	3.849
386.42	3.858
386.96	3.872
387.51	3.879
388.05	3.89
388.59	3.897
389.14	3.903
389.68	3.907
390.22	3.912
390.77	3.913
391.31	3.915
391.86	3.92
392.4	3.921
392.94	3.925
393.49	3.929
394.03	3.931
394.57	3.935
395.12	3.943
395.66	3.946
396.2	3.958
396.75	3.967
397.29	3.975
397.83	3.986
398.38	3.996
398.92	4.004
399.46	4.011
400.01	4.016
400.55	4.013
401.09	4.007
401.64	3.999
402.18	3.991
402.72	3.982
403.27	3.974
403.81	3.967
404.35	3.96
404.9	3.945
405.44	3.935
405.98	3.921
406.53	3.913
407.07	3.908
407.61	3.903
408.16	3.902
408.7	3.902
409.25	3.902
409.79	3.903
410.33	3.907
410.88	3.912
411.42	3.915
411.96	3.923
412.51	3.929
413.05	3.937
413.59	3.945
414.14	3.951
414.68	3.958
415.22	3.968
415.77	3.98
416.31	3.985
416.85	3.991
417.4	3.996
417.94	4.001
418.48	4
419.03	3.993
419.57	3.985
420.11	3.977
420.66	3.967
421.2	3.962
421.74	3.957
422.29	3.942
422.83	3.929
423.37	3.913
423.92	3.905
424.46	3.895
425.01	3.885
425.55	3.874
426.09	3.865
426.64	3.854
427.18	3.845
427.72	3.835
428.27	3.829
428.81	3.825
429.35	3.823
429.9	3.821
430.44	3.821
430.98	3.825
431.53	3.827
432.07	3.833
432.61	3.837
433.16	3.843
433.7	3.849
434.24	3.856
434.79	3.863
435.33	3.872
435.87	3.883
436.42	3.892
436.96	3.905
437.5	3.913
438.05	3.925
438.59	3.945
439.13	3.949
439.68	3.964
440.22	3.982
440.76	4
441.31	4.016
441.85	4.027
442.4	4.039
442.94	4.045
443.48	4.049
444.03	4.044
444.57	4.037
445.11	4.031
445.66	4.022
446.2	4.013
446.74	3.992
447.29	3.973
447.83	3.957
448.3	3.926
448.92	3.893
449.39	3.874
449.93	3.853
450.47	3.813
451.09	3.775
451.63	3.747
452.18	3.709
452.72	3.674
453.26	3.566
453.81	3.491
454.35	3.436
454.89	3.39
455.44	3.344
455.98	3.3
456.52	3.258
457.07	3.211
457.61	3.186
458.16	3.13
458.7	3.089
459.24	3.043
459.79	2.992
460.33	2.978
460.87	2.949
461.42	2.902
461.96	2.885
