Uv/Vis Spectrum: 1H-Pyrrole, 2-phenyl-
Formula: C10H9N
CAS: 3042-22-6
Melting point: 129
Instrument: Specord UV-VIS
Origin: INSTITUTE OF ENERGY PROBLEMS OF CHEMICAL PHYSICS, RAS
Wavelength (nm)	Logarithm epsilon
210.54	3.98
210.62	3.98
210.69	3.98
210.77	3.98
210.85	3.98
210.93	3.982
211.01	3.982
211.09	3.982
211.17	3.982
211.25	3.982
211.33	3.984
211.8	3.986
212.44	3.988
213.07	3.994
213.71	3.994
214.34	3.994
214.97	3.994
215.61	3.994
216.24	3.994
216.87	3.988
217.51	3.988
218.14	3.982
218.78	3.976
219.41	3.962
220.04	3.958
220.68	3.943
221.31	3.935
221.94	3.927
222.58	3.923
223.21	3.923
223.85	3.923
224.48	3.915
225.11	3.905
225.75	3.895
226.38	3.885
227.01	3.883
227.65	3.879
228.28	3.881
228.92	3.881
229.55	3.887
230.18	3.893
230.82	3.897
231.45	3.899
232.08	3.899
232.72	3.899
233.35	3.893
233.99	3.887
234.62	3.881
235.25	3.87
235.89	3.858
236.52	3.852
237.16	3.852
237.79	3.852
238.42	3.852
239.06	3.852
239.69	3.862
240.32	3.87
240.96	3.874
241.59	3.876
242.86	3.883
244.76	3.885
246.03	3.872
246.66	3.86
247.3	3.852
247.93	3.848
248.56	3.836
249.2	3.828
249.83	3.82
250.46	3.816
251.1	3.791
251.73	3.763
252.37	3.744
253	3.72
253.63	3.704
254.27	3.671
254.9	3.655
255.53	3.627
256.17	3.606
256.8	3.572
257.44	3.55
258.07	3.509
258.7	3.476
259.34	3.436
259.97	3.411
260.6	3.389
261.24	3.35
261.87	3.314
262.51	3.281
263.14	3.247
263.77	3.22
264.41	3.198
265.04	3.164
265.68	3.131
266.31	3.101
266.94	3.08
267.58	3.052
268.21	3.038
268.84	3.019
269.48	3.005
270.11	2.987
270.75	2.983
271.38	2.979
272.01	2.975
272.65	2.973
274.55	2.979
275.18	2.981
276.45	3.003
277.08	3.013
277.72	3.023
278.35	3.04
278.98	3.068
279.62	3.086
280.25	3.099
280.89	3.127
281.52	3.149
282.15	3.164
282.79	3.188
283.42	3.21
284.05	3.241
284.69	3.263
285.32	3.296
285.96	3.332
286.59	3.365
287.22	3.387
287.86	3.442
288.49	3.458
289.12	3.499
289.76	3.539
290.39	3.572
291.03	3.606
291.66	3.651
292.29	3.681
292.93	3.708
293.56	3.755
294.19	3.816
294.83	3.85
295.46	3.883
296.1	3.931
296.73	3.958
297.36	4.006
298	4.039
298.63	4.069
299.27	4.104
299.9	4.128
300.53	4.157
301.17	4.171
301.8	4.185
302.43	4.201
303.07	4.206
303.7	4.206
304.34	4.201
304.97	4.189
305.6	4.175
306.24	4.151
306.87	4.143
307.5	4.13
308.14	4.114
308.77	4.102
309.41	4.094
310.04	4.078
310.67	4.073
311.94	4.055
312.57	4.045
313.21	4.035
313.84	4.021
314.48	4.013
315.11	4
315.74	3.988
316.38	3.968
317.01	3.939
317.64	3.917
318.28	3.891
318.91	3.862
319.55	3.816
320.18	3.783
320.81	3.755
321.45	3.72
322.08	3.673
323.35	3.574
323.98	3.525
324.62	3.48
325.25	3.446
325.88	3.399
326.52	3.354
327.15	3.288
327.79	3.255
328.42	3.223
329.05	3.174
329.69	3.129
330.32	3.101
330.95	3.068
331.59	3.04
332.22	3.009
332.86	2.975
333.49	2.946
334.12	2.924
334.76	2.891
335.39	2.875
336.02	2.845
336.66	2.826
337.29	2.804
337.93	2.776
338.56	2.761
339.19	2.741
339.83	2.719
340.46	2.703
341.09	2.688
