Uv/Vis Spectrum: Harmaline
Formula: C13H14N2O
CAS: 304-21-2
Melting point: 250 dec.
Instrument: Shimadzu UV-190
Origin: INSTITUTE OF ENERGY PROBLEMS OF CHEMICAL PHYSICS, RAS
Wavelength (nm)	Logarithm epsilon
195.28	4.212
195.42	4.212
195.56	4.212
195.7	4.212
195.84	4.212
195.98	4.213
196.12	4.213
196.26	4.213
196.4	4.213
196.54	4.213
196.68	4.214
196.81	4.214
196.95	4.214
197.09	4.214
197.23	4.214
197.79	4.215
199.74	4.222
200.72	4.225
201.69	4.226
202.67	4.225
203.64	4.223
204.62	4.22
205.59	4.215
206.57	4.214
207.55	4.213
208.52	4.214
209.5	4.216
210.63	4.22
211.45	4.222
212.42	4.227
213.4	4.232
214.37	4.236
215.35	4.24
216.33	4.243
217.32	4.244
218.28	4.244
218.89	4.242
219.25	4.24
220.23	4.225
221.2	4.209
222.18	4.19
223.15	4.167
224.13	4.146
225.1	4.124
226.08	4.096
227.06	4.067
228.03	4.032
229.01	3.997
229.98	3.959
230.96	3.919
231.93	3.877
232.91	3.835
233.88	3.796
234.86	3.767
235.84	3.742
236.81	3.723
237.79	3.707
238.76	3.696
239.74	3.683
240.71	3.675
241.69	3.668
242.66	3.662
243.64	3.655
244.62	3.652
245.59	3.648
246.57	3.648
247.54	3.648
248.52	3.652
249.49	3.657
250.47	3.664
251.44	3.669
252.42	3.678
253.39	3.688
254.37	3.698
255.35	3.711
256.32	3.72
257.3	3.731
258.27	3.742
259.25	3.755
260.22	3.769
261.2	3.782
262.17	3.797
263.15	3.809
264.13	3.822
265.1	3.834
266.08	3.847
267.05	3.857
268.03	3.867
269	3.879
269.98	3.889
270.95	3.899
271.93	3.909
272.91	3.915
273.88	3.921
274.86	3.926
275.83	3.926
276.81	3.922
277.78	3.903
278.76	3.887
279.73	3.864
280.71	3.844
281.68	3.821
282.66	3.792
283.64	3.761
284.61	3.729
285.59	3.691
286.56	3.655
287.54	3.606
288.51	3.564
289.49	3.535
290.46	3.5
291.44	3.466
292.42	3.437
293.39	3.397
294.37	3.367
295.34	3.338
296.32	3.307
297.29	3.283
298.27	3.261
299.24	3.248
300.21	3.241
301.2	3.243
302.16	3.249
303.32	3.258
304.26	3.268
305.34	3.282
306.21	3.295
307.05	3.311
308.09	3.33
309	3.349
309.97	3.374
310.95	3.397
311.93	3.422
312.9	3.449
313.88	3.474
314.85	3.5
315.83	3.532
316.8	3.56
317.78	3.584
318.75	3.612
319.73	3.635
320.71	3.659
321.68	3.68
322.66	3.704
323.63	3.725
324.61	3.747
325.58	3.768
326.56	3.788
327.53	3.806
328.51	3.826
329.49	3.845
330.46	3.861
331.44	3.88
332.41	3.901
333.39	3.916
334.36	3.934
335.34	3.951
336.31	3.966
337.29	3.981
338.26	4
339.24	4.015
340.22	4.03
341.19	4.042
342.17	4.056
343.14	4.07
344.12	4.081
345.09	4.094
346.07	4.105
347.04	4.117
348.02	4.129
349	4.14
349.97	4.15
350.95	4.16
351.92	4.17
352.9	4.181
353.87	4.192
354.85	4.201
355.82	4.211
356.8	4.217
357.78	4.226
358.75	4.233
359.73	4.24
360.7	4.248
361.68	4.254
362.65	4.26
363.63	4.264
364.6	4.268
365.58	4.272
366.55	4.275
367.53	4.278
368.51	4.279
369.48	4.28
370.46	4.279
371.43	4.277
372.41	4.275
373.38	4.273
374.36	4.27
375.33	4.267
376.31	4.263
377.29	4.258
378.26	4.251
379.24	4.246
380.21	4.241
381.19	4.233
382.16	4.226
383.14	4.218
384.11	4.207
385.09	4.198
386.07	4.189
387.04	4.179
388.02	4.169
388.99	4.155
389.97	4.143
390.94	4.129
391.92	4.113
392.89	4.097
393.87	4.082
394.84	4.065
395.82	4.048
396.8	4.031
