Uv/Vis Spectrum: Benzene, 1-methyl-3,5-bis(1-methylethyl)-
Formula: C13H20
CAS: 3055-14-9
Boiling point: 216.5
Instrument: unknown
Origin: INSTITUTE OF ENERGY PROBLEMS OF CHEMICAL PHYSICS, RAS
Wavelength (nm)	Logarithm epsilon
232.62	2.069
232.66	2.055
232.7	2.04
232.79	2.025
232.87	2.009
232.96	1.993
233.09	1.977
233.13	1.96
233.25	1.943
233.34	1.924
233.42	1.904
233.55	1.885
233.63	1.863
233.76	1.843
233.85	1.818
233.97	1.796
234.1	1.771
234.27	1.746
234.4	1.719
234.61	1.693
234.86	1.667
235.11	1.638
235.41	1.612
235.75	1.589
236.09	1.57
236.45	1.553
236.79	1.547
237.19	1.544
237.57	1.544
237.98	1.547
238.33	1.555
238.73	1.567
239.04	1.58
239.38	1.594
239.72	1.608
240.04	1.623
240.4	1.638
240.74	1.655
241.08	1.669
241.45	1.686
241.81	1.702
242.13	1.715
242.47	1.732
242.8	1.749
243.1	1.762
243.42	1.776
243.74	1.79
244.07	1.804
244.41	1.817
244.71	1.829
245.05	1.843
245.38	1.853
245.72	1.866
246.06	1.878
246.4	1.89
246.69	1.902
246.99	1.913
247.33	1.924
247.67	1.933
247.96	1.943
248.3	1.952
248.64	1.962
248.98	1.97
249.32	1.977
249.65	1.985
250.03	1.991
250.41	1.996
250.75	2.005
251.05	2.014
251.3	2.025
251.6	2.035
251.85	2.045
252.1	2.055
252.36	2.065
252.65	2.074
252.91	2.083
253.16	2.092
253.42	2.101
253.71	2.11
253.96	2.118
254.22	2.126
254.51	2.134
254.77	2.142
255.06	2.15
255.36	2.158
255.61	2.166
255.91	2.173
256.2	2.18
256.5	2.188
256.8	2.195
257.13	2.2
257.47	2.205
257.85	2.207
258.23	2.206
258.61	2.204
258.99	2.2
259.33	2.204
259.63	2.21
259.92	2.216
260.22	2.223
260.47	2.231
260.73	2.237
260.98	2.243
261.19	2.251
261.45	2.257
261.7	2.264
261.91	2.271
262.16	2.278
262.38	2.284
262.63	2.291
262.84	2.297
263.05	2.304
263.31	2.31
263.56	2.315
263.94	2.316
264.23	2.311
264.4	2.304
264.62	2.297
264.78	2.29
264.95	2.282
265.16	2.276
265.29	2.268
265.5	2.261
265.71	2.253
265.88	2.244
266.14	2.237
266.31	2.228
266.52	2.221
266.73	2.212
266.98	2.204
267.19	2.195
267.4	2.186
267.66	2.178
267.91	2.171
268.17	2.163
268.55	2.161
268.8	2.168
269.01	2.178
269.18	2.188
269.35	2.197
269.48	2.206
269.64	2.215
269.86	2.223
270	2.225
270.24	2.222
270.47	2.215
270.66	2.205
270.79	2.195
270.91	2.185
271.04	2.175
271.17	2.166
271.29	2.154
271.42	2.142
271.55	2.132
271.67	2.121
271.8	2.11
271.93	2.097
272.05	2.085
272.18	2.072
272.31	2.06
272.43	2.045
272.52	2.03
272.65	2.016
272.77	2.002
272.9	1.987
273.03	1.972
273.2	1.956
273.32	1.939
273.49	1.922
273.62	1.904
273.79	1.885
273.96	1.866
274.13	1.845
274.34	1.824
274.51	1.801
274.72	1.781
274.89	1.756
275.14	1.732
275.31	1.704
275.6	1.682
275.86	1.659
276.11	1.63
276.41	1.603
276.7	1.575
277	1.544
