Uv/Vis Spectrum: 2-methyl-1H-anthra[1,2-d]imidazole-6,11-dione
Formula: C16H10N2O2
CAS: 30634-09-4
Melting point: 316-319
Instrument: SF-16
Origin: INSTITUTE OF ENERGY PROBLEMS OF CHEMICAL PHYSICS, RAS
Wavelength (nm)	Logarithm epsilon
221.802	4.142
222.081	4.148
223.081	4.169
224.081	4.189
225.081	4.209
226.081	4.228
227.081	4.247
228.081	4.265
229.081	4.282
230.081	4.296
231.081	4.308
232.081	4.315
233.081	4.317
234.081	4.313
234.715	4.307
235.361	4.302
236.361	4.299
237.361	4.301
238.361	4.308
239.361	4.321
239.663	4.326
240.663	4.337
241.663	4.345
242.663	4.349
243.663	4.349
244.663	4.346
245.663	4.338
246.663	4.326
247.231	4.317
247.756	4.308
248.756	4.284
249.756	4.266
250.756	4.254
251.756	4.247
252.756	4.245
253.756	4.248
254.756	4.254
255.756	4.264
256.756	4.276
257.756	4.291
258.756	4.308
259.756	4.325
260.756	4.348
261.756	4.369
262.756	4.385
263.756	4.4
264.756	4.412
265.756	4.424
266.756	4.434
267.756	4.443
268.756	4.45
269.756	4.456
270.756	4.458
271.756	4.457
272.756	4.452
273.756	4.442
274.756	4.426
275.756	4.403
276.644	4.375
277.543	4.344
278.5	4.318
279.5	4.293
280.5	4.266
281.5	4.24
282.5	4.212
283.5	4.185
284.5	4.156
285.5	4.127
286.5	4.098
287.5	4.068
288.5	4.038
289.5	4.007
290.5	3.976
291.5	3.945
292.5	3.913
293.5	3.881
294.5	3.849
295.5	3.817
296.5	3.785
297.5	3.752
298.5	3.72
299.5	3.687
300.5	3.654
301.5	3.622
302.5	3.589
303.5	3.556
304.5	3.524
305.5	3.492
306.5	3.459
307.477	3.427
308.477	3.399
309.477	3.377
310.477	3.359
311.477	3.344
312.477	3.334
313.477	3.327
314.477	3.323
315.477	3.322
316.477	3.324
317.477	3.329
318.477	3.335
319.477	3.344
320.477	3.354
321.477	3.365
322.477	3.377
323.477	3.391
324.477	3.405
325.5	3.421
326.5	3.442
327.5	3.459
328.5	3.475
329.5	3.489
330.5	3.503
331.5	3.515
332.5	3.527
333.5	3.539
334.5	3.55
335.5	3.562
336.5	3.573
337.5	3.585
338.5	3.596
339.5	3.607
340.5	3.618
341.5	3.629
342.5	3.64
343.5	3.65
344.5	3.661
345.5	3.67
346.5	3.68
347.5	3.689
348.5	3.698
349.5	3.707
350.5	3.715
351.5	3.723
352.5	3.73
353.5	3.738
354.5	3.745
355.5	3.752
356.5	3.759
357.5	3.766
358.5	3.773
359.5	3.78
360.5	3.786
361.5	3.793
362.5	3.8
363.5	3.807
364.5	3.814
365.5	3.821
366.5	3.828
367.5	3.835
368.5	3.842
369.5	3.849
370.5	3.855
371.5	3.861
372.5	3.867
373.5	3.873
374.5	3.878
375.5	3.883
376.5	3.887
377.5	3.89
378.5	3.893
379.5	3.895
380.5	3.896
381.5	3.896
382.5	3.896
383.5	3.894
384.5	3.892
385.5	3.888
386.5	3.884
387.5	3.879
388.5	3.873
389.5	3.866
390.5	3.859
391.5	3.851
392.5	3.842
393.5	3.833
394.5	3.823
395.5	3.812
396.5	3.802
397.5	3.791
398.5	3.779
399.5	3.767
400.5	3.755
401.5	3.742
402.5	3.729
403.5	3.715
404.5	3.701
405.5	3.685
406.5	3.669
407.5	3.652
408.5	3.633
409.5	3.614
410.5	3.592
411.5	3.569
412.5	3.545
413.5	3.519
414.5	3.49
415.5	3.461
416.5	3.43
417.5	3.397
418.5	3.364
419.5	3.329
420.5	3.294
421.5	3.26
422.5	3.225
423.5	3.192
424.5	3.158
425.5	3.126
426.5	3.093
427.5	3.06
428.5	3.023
429.5	2.98
430.5	2.926
