Uv/Vis Spectrum: 3-(1-methyl-1H-benzimidazol-2-yl)-2-prop[enoic acid
Formula: C11H10N2O2
CAS: 30769-96-1
Melting point: 227-228 (dec.)
Instrument: SF-4A
Origin: INSTITUTE OF ENERGY PROBLEMS OF CHEMICAL PHYSICS, RAS
Wavelength (nm)	Logarithm epsilon
217.129	3.904
218.271	3.86
219.413	3.84
220.555	3.816
221.697	3.796
222.839	3.788
223.981	3.784
225.123	3.78
226.265	3.768
227.198	3.751
228.198	3.734
229.198	3.721
230.198	3.712
231.198	3.706
232.198	3.702
233.198	3.698
234.198	3.692
235.198	3.682
236.198	3.667
237.198	3.645
238.198	3.618
239.079	3.595
240.079	3.552
241.079	3.529
242.079	3.508
243.079	3.477
244.079	3.426
245.079	3.354
246.079	3.265
247.079	3.172
247.336	3.149
248.336	3.112
249.336	3.09
250.336	3.08
251.336	3.08
252.336	3.089
253.336	3.104
254.336	3.124
255.336	3.148
256.336	3.176
257.336	3.205
258.336	3.235
259.336	3.266
260.336	3.297
261.336	3.327
262.336	3.357
263.336	3.387
264.336	3.415
265.336	3.442
266.336	3.468
267.336	3.494
268.336	3.519
269.336	3.544
270.336	3.568
271.336	3.593
272.336	3.617
273.112	3.639
274.112	3.662
275.112	3.684
276.112	3.705
277.112	3.725
278.112	3.745
279.112	3.764
280.112	3.782
281.112	3.799
282.112	3.816
283.112	3.832
284.112	3.847
285.112	3.861
286.112	3.875
287.112	3.888
288.112	3.9
289.112	3.912
290.112	3.923
291.112	3.933
292.112	3.942
293.112	3.951
294.112	3.959
295.112	3.966
296.112	3.972
297.112	3.977
298.112	3.981
299.112	3.985
300.112	3.987
301.112	3.988
302.112	3.988
303.112	3.987
304.112	3.985
305.112	3.981
306.112	3.977
307.112	3.97
308.112	3.963
309.112	3.954
310.112	3.944
311.112	3.932
312.112	3.919
313.112	3.905
314.112	3.889
315.112	3.872
316.112	3.855
317.112	3.836
318.112	3.817
318.825	3.804
319.825	3.782
320.825	3.759
321.825	3.734
322.825	3.706
323.825	3.673
324.825	3.636
325.825	3.594
326.825	3.547
327.825	3.495
328.825	3.439
329.825	3.381
330.825	3.32
331.825	3.259
332.825	3.199
333.825	3.143
334.533	3.111
335.533	3.053
336.533	2.999
337.533	2.95
338.533	2.905
339.533	2.865
340.533	2.829
341.533	2.795
342.533	2.764
343.533	2.733
344.533	2.7
345.533	2.662
