Uv/Vis Spectrum: Phenanthro[4,5-bcd]thiphene
Formula: C14H8S
CAS: 30796-92-0
Melting point: 139-140
Instrument: Shimadzu UV-200
Origin: INSTITUTE OF ENERGY PROBLEMS OF CHEMICAL PHYSICS, RAS
Wavelength (nm)	Logarithm epsilon
212.744	3.814
214.479	3.928
215.979	4.035
217.479	4.145
218.979	4.243
220.501	4.326
221.834	4.395
223.501	4.452
225.001	4.498
226.501	4.5
228.001	4.456
229.758	4.413
231.258	4.393
232.758	4.388
234.258	4.395
235.758	4.412
237.258	4.434
238.601	4.449
240.101	4.476
241.601	4.477
243.101	4.449
244.478	4.39
245.978	4.343
247.478	4.301
248.978	4.263
250.478	4.227
251.978	4.192
253.478	4.157
254.978	4.122
256.478	4.089
257.978	4.061
259.611	4.035
261.111	4.034
262.611	4.049
264.111	4.073
265.853	4.091
267.369	4.134
268.869	4.319
270.549	4.513
271.16	4.577
272.114	4.635
273.369	4.641
274.096	4.619
274.566	4.582
274.801	4.549
276.301	4.332
277.801	4.114
279.301	3.922
280.801	3.747
281.241	3.676
282.883	3.524
284.383	3.493
286.319	3.518
287.965	3.544
289.375	3.565
290.474	3.592
291.904	3.618
293.335	3.65
295.051	3.681
296.551	3.719
298.051	3.755
299.551	3.79
301.051	3.823
302.634	3.867
303.949	3.899
305.449	3.945
306.949	3.976
308.449	3.991
309.949	3.994
311.449	3.987
312.949	3.973
314.449	3.956
316.027	3.939
317.527	3.922
319.027	3.905
320.527	3.892
322.027	3.884
323.527	3.885
325.027	3.895
326.527	3.915
328.027	3.948
329.646	4.003
330.896	4.049
332.393	4.037
333.396	3.923
334.646	3.78
336.859	3.526
338.109	3.47
340.708	3.444
343.676	3.439
344.926	3.4
346.176	3.314
347.426	3.205
348.612	3.104
349.862	3.001
351.112	2.949
352.362	2.939
353.612	2.959
354.516	2.985
355.974	3.022
357.224	3.028
358.474	3.01
359.884	2.978
361.22	2.934
