Uv/Vis Spectrum: 3-(1-methyl-1H-benzimidazol-2-yl)-2-propenoic acid, methyl ester
Formula: C12H12N2O2
CAS: 30780-01-9
Melting point: 130
Instrument: SF-4A
Origin: INSTITUTE OF ENERGY PROBLEMS OF CHEMICAL PHYSICS, RAS
Wavelength (nm)	Logarithm epsilon
228.161	4.117
229.661	4.097
231.161	4.08
232.661	4.065
234.161	4.051
235.661	4.04
237.161	4.03
238.661	4.023
240.161	4.018
241.661	4.014
243.407	4.014
244.793	4.005
246.41	3.987
247.796	3.956
249.294	3.911
250.468	3.863
251.492	3.807
252.992	3.682
254.492	3.473
255.188	3.35
256.112	3.239
257.612	3.073
259.112	2.964
260.612	2.901
262.112	2.877
263.612	2.881
265.112	2.906
266.612	2.943
268.112	2.987
269.612	3.035
271.112	3.087
272.858	3.16
274.358	3.258
275.858	3.357
277.358	3.439
278.981	3.502
280.481	3.547
281.981	3.591
283.481	3.629
284.981	3.678
285.911	3.75
286.718	3.824
288.218	3.918
289.718	3.979
291.218	4.011
292.718	4.026
294.218	4.037
295.843	4.056
297.343	4.069
298.843	4.085
300.343	4.11
301.843	4.142
303.343	4.179
304.843	4.219
306.343	4.257
307.624	4.288
309.124	4.305
310.624	4.323
312.124	4.34
313.624	4.356
315.124	4.371
316.624	4.383
318.124	4.393
319.624	4.401
321.124	4.407
322.624	4.411
324.124	4.413
325.624	4.413
327.124	4.412
328.624	4.409
330.124	4.404
331.624	4.397
333.124	4.388
334.624	4.376
336.124	4.363
337.624	4.347
339.124	4.329
340.624	4.309
342.124	4.287
343.624	4.264
345.124	4.239
346.624	4.213
348.124	4.186
349.624	4.158
351.124	4.128
352.624	4.097
354.124	4.064
355.624	4.027
357.124	3.985
358.624	3.937
360.124	3.88
361.624	3.813
363.124	3.733
364.624	3.639
366.124	3.53
367.624	3.406
369.124	3.272
370.624	3.135
372.124	3.007
373.624	2.908
375.307	2.846
