Uv/Vis Spectrum: 1,1'-Biphenyl, 2,2',5,5'-tetramethyl-
Formula: C16H18
CAS: 3075-84-1
Melting point: 51.5
Boiling point: 285
Instrument: unknown
Origin: INSTITUTE OF ENERGY PROBLEMS OF CHEMICAL PHYSICS, RAS
Wavelength (nm)	Logarithm epsilon
229.02	3.944
229.11	3.935
229.24	3.924
229.36	3.915
229.45	3.906
229.58	3.898
229.71	3.889
229.84	3.881
229.96	3.872
230.09	3.864
230.23	3.855
230.39	3.847
230.52	3.837
230.69	3.829
230.86	3.82
231.03	3.812
231.19	3.804
231.38	3.796
231.56	3.788
231.76	3.78
231.97	3.772
232.19	3.765
232.4	3.756
232.62	3.749
232.83	3.741
233.04	3.734
233.27	3.727
233.51	3.719
233.77	3.713
234.03	3.706
234.28	3.7
234.54	3.692
234.8	3.685
235.05	3.677
235.33	3.671
235.57	3.664
235.87	3.657
236.12	3.651
236.42	3.644
236.72	3.638
237.02	3.632
237.28	3.625
237.51	3.619
237.75	3.611
238	3.605
238.26	3.599
238.52	3.592
238.73	3.585
238.99	3.577
239.19	3.57
239.42	3.562
239.63	3.555
239.89	3.548
240.1	3.54
240.31	3.532
240.53	3.524
240.74	3.516
240.96	3.507
241.17	3.499
241.34	3.491
241.55	3.483
241.73	3.474
241.94	3.466
242.11	3.457
242.29	3.449
242.45	3.441
242.67	3.433
242.84	3.424
243.01	3.417
243.22	3.408
243.39	3.4
243.56	3.391
243.69	3.383
243.86	3.374
244.03	3.366
244.21	3.357
244.42	3.349
244.59	3.34
244.72	3.331
244.93	3.323
245.1	3.314
245.27	3.306
245.45	3.297
245.62	3.289
245.79	3.282
245.96	3.273
246.13	3.264
246.34	3.256
246.51	3.247
246.69	3.239
246.86	3.23
247.03	3.223
247.2	3.214
247.38	3.206
247.58	3.198
247.8	3.19
247.99	3.181
248.18	3.174
248.38	3.165
248.53	3.158
248.74	3.148
248.92	3.141
249.12	3.132
249.29	3.125
249.51	3.116
249.72	3.109
249.94	3.102
250.15	3.093
250.36	3.085
250.58	3.077
250.79	3.069
250.98	3.062
251.22	3.053
251.39	3.047
251.65	3.038
251.9	3.03
252.15	3.024
252.42	3.016
252.67	3.01
252.97	3.004
253.23	2.997
253.53	2.991
253.83	2.986
254.17	2.98
254.51	2.976
254.9	2.973
255.24	2.969
255.62	2.966
256.01	2.963
256.39	2.963
256.78	2.963
257.16	2.964
257.51	2.967
257.89	2.97
258.23	2.973
258.57	2.978
258.87	2.983
259.17	2.99
259.43	2.996
259.69	3.003
259.94	3.009
260.2	3.015
260.46	3.022
260.76	3.028
261.06	3.033
261.35	3.04
261.7	3.045
262.04	3.05
262.38	3.055
262.77	3.057
263.11	3.061
263.49	3.064
263.84	3.068
264.18	3.072
264.48	3.077
264.82	3.081
265.12	3.088
265.37	3.095
265.63	3.103
265.8	3.111
266.02	3.119
266.19	3.127
266.4	3.135
266.61	3.143
266.83	3.152
267.09	3.159
267.34	3.167
267.56	3.174
267.86	3.18
268.11	3.187
268.45	3.191
268.84	3.189
269.16	3.185
269.52	3.185
269.91	3.184
270.29	3.181
270.59	3.175
270.85	3.169
271.11	3.161
271.32	3.153
271.53	3.145
271.68	3.138
271.88	3.129
272.09	3.121
272.3	3.113
272.52	3.105
272.69	3.096
272.86	3.088
273.07	3.079
273.24	3.071
273.5	3.063
273.84	3.059
274.23	3.062
274.48	3.069
274.7	3.077
274.87	3.086
275.04	3.094
275.21	3.103
275.38	3.111
275.51	3.121
275.64	3.129
275.77	3.139
275.9	3.147
276.09	3.157
276.28	3.164
276.58	3.17
276.96	3.17
277.31	3.165
277.52	3.157
277.6	3.15
277.72	3.139
277.79	3.129
277.86	3.119
277.95	3.109
278.03	3.099
278.1	3.091
278.2	3.081
278.29	3.072
278.38	3.062
278.48	3.052
278.55	3.044
278.64	3.035
278.76	3.024
