Uv/Vis Spectrum: 1,2,4-triazolo[3,4,-b][1,3,4]thiadiazole-3,6(2H,5H)-dithione
Formula: C3H2N4S3
CAS: 30843-85-7
Melting point: 193
Instrument: SF-4
Origin: INSTITUTE OF ENERGY PROBLEMS OF CHEMICAL PHYSICS, RAS
Wavelength (nm)	Logarithm epsilon
233.928	3.927
234.928	3.96
235.928	3.991
236.928	4.021
237.928	4.047
238.928	4.07
239.928	4.09
240.928	4.105
241.928	4.117
242.928	4.126
243.928	4.132
244.928	4.136
245.928	4.139
246.928	4.14
247.928	4.141
248.928	4.141
249.928	4.14
250.928	4.14
251.928	4.14
252.928	4.139
253.928	4.138
254.928	4.136
255.928	4.133
256.928	4.128
257.928	4.122
258.928	4.114
258.935	4.113
259.935	4.103
260.935	4.089
261.935	4.072
262.935	4.052
263.935	4.031
264.935	4.008
265.935	3.986
266.935	3.963
267.935	3.941
268.935	3.92
269.935	3.9
270.935	3.88
271.935	3.861
272.935	3.842
273.935	3.822
274.935	3.803
275.935	3.783
276.935	3.763
277.935	3.745
278.935	3.729
279.014	3.728
280.014	3.716
281.014	3.706
282.014	3.698
283.014	3.694
284.014	3.691
285.014	3.689
286.014	3.689
287.014	3.69
288.014	3.692
289.014	3.695
290.014	3.699
291.014	3.704
292.014	3.709
293.014	3.715
294.014	3.721
295.014	3.728
296.014	3.735
297.014	3.743
298.014	3.751
299.014	3.759
299.092	3.757
300.092	3.768
301.092	3.777
302.092	3.785
303.092	3.791
304.092	3.797
305.092	3.803
306.092	3.808
307.092	3.814
308.092	3.82
309.092	3.825
310.092	3.83
311.092	3.835
312.092	3.838
313.092	3.841
314.092	3.843
315.092	3.844
316.092	3.843
317.092	3.841
318.092	3.837
319.092	3.831
320.092	3.823
321.092	3.813
322.092	3.803
323.004	3.789
324.004	3.779
325.004	3.767
326.004	3.754
327.004	3.74
328.004	3.725
329.004	3.71
330.004	3.694
331.004	3.677
332.004	3.66
333.004	3.642
334.004	3.623
335.004	3.604
336.004	3.585
337.004	3.565
338.004	3.546
339.004	3.526
340.004	3.506
341.004	3.485
342.004	3.465
343.004	3.445
344.004	3.425
345.004	3.406
346.004	3.386
347.004	3.367
347.463	3.354
