Uv/Vis Spectrum: Sulfone, methyl phenyl
Formula: C7H8O2S
CAS: 3112-85-4
Melting point: 86-88
Instrument: Beckman DU
Origin: INSTITUTE OF ENERGY PROBLEMS OF CHEMICAL PHYSICS, RAS
Wavelength (nm)	Logarithm epsilon
208.13	3.834
208.44	3.816
208.92	3.778
209.31	3.738
209.7	3.696
210.1	3.647
210.33	3.617
210.72	3.573
211.24	3.519
211.67	3.472
212.04	3.437
212.38	3.407
212.85	3.366
213.28	3.337
214.03	3.296
214.43	3.276
214.82	3.259
215.21	3.237
215.61	3.219
216	3.2
216.39	3.181
216.79	3.168
217.18	3.154
217.45	3.141
217.84	3.126
218.22	3.107
219.15	3.069
219.54	3.06
219.93	3.052
220.29	3.046
220.8	3.043
221.74	3.043
223.01	3.043
224.22	3.043
225.57	3.043
226.99	3.043
228.09	3.043
229.03	3.043
230.1	3.043
231.24	3.043
232.35	3.043
233.59	3.044
234.56	3.046
235.68	3.048
236.68	3.051
237.34	3.054
237.96	3.058
238.5	3.064
238.96	3.069
239.5	3.074
240.16	3.08
241.03	3.087
241.57	3.094
241.94	3.098
242.36	3.102
242.63	3.105
243.15	3.11
243.37	3.113
243.74	3.117
244.15	3.122
244.64	3.127
245.11	3.132
245.51	3.14
245.87	3.146
246.3	3.154
246.69	3.161
247.08	3.168
247.33	3.171
247.79	3.176
248.12	3.182
248.66	3.188
248.99	3.192
249.4	3.198
250.23	3.207
250.62	3.213
250.98	3.217
251.34	3.22
251.76	3.225
252.2	3.231
252.59	3.237
253	3.24
253.37	3.244
253.83	3.248
254.37	3.251
254.95	3.254
255.41	3.255
255.82	3.255
256.24	3.255
256.61	3.256
256.94	3.256
257.36	3.256
257.73	3.256
258.1	3.256
258.43	3.256
258.89	3.256
259.31	3.255
259.68	3.255
260.05	3.254
260.38	3.253
260.92	3.249
261.64	3.242
261.84	3.24
262.21	3.236
262.62	3.232
263.21	3.225
263.61	3.219
263.78	3.218
264.2	3.212
264.57	3.207
264.9	3.2
265.57	3.188
265.97	3.181
266.36	3.174
266.75	3.168
267.15	3.161
267.33	3.158
267.58	3.154
267.82	3.15
268.21	3.144
268.75	3.136
269.31	3.126
269.8	3.118
270.2	3.111
270.53	3.102
270.94	3.092
271.48	3.078
