Uv/Vis Spectrum: Silane, difluorodiphenyl-
Formula: C12H10F2Si
CAS: 312-40-3
Boiling point: 106/ 12 mm
Instrument: Unicam SP 800
Origin: INSTITUTE OF ENERGY PROBLEMS OF CHEMICAL PHYSICS, RAS
Wavelength (nm)	Logarithm epsilon
200.17	4.495
200.34	4.495
200.51	4.495
201.01	4.394
201.85	4.333
202.7	4.302
203.54	4.272
204.38	4.251
205.22	4.228
206.07	4.207
206.91	4.197
207.75	4.184
208.6	4.173
209.44	4.163
210.28	4.157
211.12	4.15
211.97	4.14
212.81	4.136
213.65	4.126
214.49	4.126
215.34	4.123
216.18	4.116
217.02	4.112
217.87	4.102
218.2	4.106
218.37	4.106
218.54	4.106
218.71	4.106
218.88	4.102
219.04	4.102
219.55	4.075
220.22	4.052
220.9	4.031
221.57	4.011
222.25	3.987
222.92	3.95
223.6	3.899
224.27	3.852
224.94	3.804
225.62	3.75
226.29	3.696
226.97	3.635
227.64	3.574
228.31	3.516
228.99	3.449
229.66	3.374
230.34	3.306
231.01	3.235
231.69	3.137
232.36	3.029
233.03	2.927
233.71	2.818
234.38	2.707
235.06	2.612
235.73	2.527
236.4	2.476
237.08	2.442
237.75	2.409
238.43	2.402
239.1	2.409
239.78	2.439
240.45	2.456
241.12	2.473
241.8	2.49
242.47	2.503
243.15	2.52
243.82	2.527
244.33	2.537
244.49	2.541
244.66	2.544
244.83	2.548
245	2.551
245.17	2.554
245.34	2.558
245.51	2.558
245.67	2.561
245.84	2.564
246.01	2.568
246.35	2.568
246.69	2.578
247.02	2.581
247.36	2.592
247.7	2.598
248.03	2.602
248.37	2.612
248.71	2.615
249.04	2.625
249.38	2.636
249.72	2.646
250.06	2.649
250.39	2.663
250.73	2.676
251.07	2.697
251.4	2.713
251.74	2.734
252.08	2.751
252.42	2.764
252.75	2.774
253.09	2.785
253.43	2.798
253.76	2.802
254.1	2.808
254.44	2.815
254.78	2.815
255.11	2.818
255.45	2.825
255.79	2.829
256.12	2.832
256.46	2.832
256.8	2.832
257.13	2.839
257.47	2.849
257.81	2.873
258.15	2.927
258.48	2.964
258.82	2.974
259.16	2.984
259.49	2.991
259.83	2.995
260.17	2.995
260.51	2.991
260.84	2.984
261.18	2.981
261.52	2.968
261.85	2.957
262.19	2.951
262.53	2.951
262.87	2.951
263.2	2.957
263.54	2.971
263.88	2.995
264.21	3.018
264.55	3.045
264.89	3.069
265.22	3.089
265.56	3.1
265.9	3.11
266.24	3.113
266.57	3.106
266.91	3.093
267.25	3.066
267.58	2.991
267.92	2.917
268.26	2.883
268.6	2.873
268.93	2.866
269.27	2.866
269.61	2.879
269.94	2.903
270.28	2.93
270.62	2.951
270.96	2.968
271.29	2.988
271.63	3.005
271.97	3.025
272.3	3.035
272.64	3.008
272.98	2.91
273.31	2.808
273.65	2.758
273.99	2.703
274.33	2.653
274.66	2.605
275	2.537
275.34	2.466
275.67	2.398
276.01	2.314
276.35	2.26
276.69	2.205
277.02	2.151
277.36	2.097
277.7	2.05
278.03	1.985
278.37	1.951
278.71	1.894
279.04	1.884
279.38	1.853
279.72	1.799
280.06	1.748
280.39	1.707
