Uv/Vis Spectrum: Octafluoronaphthalene
Formula: C10F8
CAS: 313-72-4
Melting point: 87-88
Instrument: Spectrophotometer SF-16
Origin: INSTITUTE OF ENERGY PROBLEMS OF CHEMICAL PHYSICS, RAS
Wavelength (nm)	Logarithm epsilon
230	3.83
231	3.76
232	3.67
233	3.6
234	3.56
235	3.5
236	3.45
237	3.42
238	3.39
239	3.35
240	3.33001
241	3.3
242	3.27
243	3.23
244	3.21
245	3.19
246	3.18
247	3.18
248	3.19
249	3.2
250	3.21
251	3.23
252	3.25
253	3.27
254	3.3
255	3.32
256	3.34
257	3.37
258	3.39
259	3.41
260	3.44
261	3.46
262	3.49
263	3.51
264	3.53
265	3.54
266	3.56
267	3.57
268	3.58
269	3.6
270	3.6
271	3.61
272	3.62
273	3.63
274	3.64
275	3.64
276	3.64
277	3.65
278	3.65
279	3.65
280	3.65
281	3.64
282	3.63
283	3.62
284	3.61
285	3.6
286	3.59
287	3.57
288	3.56
289	3.55
290	3.54
291	3.53
292	3.52
293	3.5
294	3.48
295	3.45
296	3.39
297	3.31
298	3.24
299	3.18
300	3.14
301	3.14
302	3.14
303	3.15
304	3.15
305	3.16
306	3.17
307	3.19
308	3.21
309	3.22
310	3.22
311	3.21
312	3.19
313	3.16
314	3.16
315	3.16
316	3.16
317	3.18
318	3.2
319	3.24
320	3.25
321	3.26
322	3.28
323	3.28
324	3.28
325	3.28
326	3.26
327	3.19
328	3.1
329	2.98
