Uv/Vis Spectrum: 1,2-dihydro-3H-1,2,4-triazino[6,5-b]indole-3-thione
Formula: C9H6N4S
CAS: 31481-99-9
Melting point: > 330
Instrument: SF-8
Origin: INSTITUTE OF ENERGY PROBLEMS OF CHEMICAL PHYSICS, RAS
Wavelength (nm)	Logarithm epsilon
239.845	4.062
240.845	4.08
241.845	4.08
242.845	4.069
243.845	4.051
244.845	4.028
245.845	4.003
246.845	3.98
247.845	3.958
248.845	3.94
249.845	3.925
250.845	3.914
251.845	3.908
252.845	3.904
253.845	3.905
254.845	3.907
255.845	3.912
256.845	3.918
257.845	3.924
258.845	3.93
259.845	3.935
260.845	3.938
261.845	3.94
262.845	3.94
263.845	3.938
264.845	3.934
265.845	3.928
266.845	3.921
267.845	3.913
268.845	3.906
269.845	3.899
270.845	3.894
271.845	3.891
272.845	3.892
273.845	3.897
274.845	3.907
275.845	3.922
276.845	3.942
277.845	3.966
278.845	3.994
280.437	4.038
281.437	4.053
282.437	4.077
283.437	4.107
284.437	4.141
285.437	4.175
286.437	4.21
287.437	4.244
288.437	4.277
289.437	4.309
290.437	4.34
291.437	4.37
292.437	4.398
293.437	4.425
294.437	4.452
295.437	4.478
296.437	4.503
297.437	4.527
298.437	4.549
299.437	4.569
300.437	4.586
301.437	4.6
302.437	4.61
303.437	4.615
304.437	4.615
305.437	4.61
306.437	4.6
307.437	4.586
308.437	4.568
308.999	4.556
309.999	4.55
310.999	4.543
311.999	4.534
312.999	4.524
313.999	4.511
314.999	4.496
315.999	4.479
316.999	4.46
317.999	4.439
318.999	4.417
319.999	4.393
320.999	4.369
321.999	4.344
322.999	4.319
323.999	4.294
324.999	4.269
325.999	4.245
326.999	4.221
327.999	4.197
328.999	4.174
329.999	4.152
330.999	4.13
331.999	4.107
332.999	4.085
333.999	4.063
334.999	4.04
335.999	4.017
336.999	3.994
337.999	3.971
339.562	3.936
340.562	3.921
341.562	3.902
342.562	3.88
343.562	3.854
344.562	3.825
345.562	3.794
346.562	3.761
347.562	3.727
348.562	3.691
349.562	3.655
350.562	3.618
351.562	3.582
352.562	3.545
353.562	3.509
354.562	3.473
355.562	3.439
356.562	3.405
357.562	3.373
358.562	3.342
359.562	3.313
360.562	3.286
361.562	3.26
362.562	3.236
363.562	3.213
364.562	3.193
365.562	3.174
366.562	3.157
367.562	3.141
368.562	3.127
369.562	3.114
370.562	3.103
370.575	3.106
371.575	3.097
372.575	3.088
373.575	3.08
374.575	3.071
375.575	3.063
376.575	3.055
377.575	3.047
378.575	3.039
379.575	3.031
380.575	3.023
381.575	3.016
382.575	3.008
383.575	3.001
384.575	2.994
385.575	2.986
386.575	2.979
387.575	2.972
388.575	2.966
389.575	2.959
390.575	2.952
391.575	2.946
392.575	2.94
393.575	2.933
394.575	2.927
395.575	2.921
396.575	2.915
397.575	2.91
398.575	2.904
399.575	2.899
400.575	2.893
401.575	2.888
402.575	2.883
403.575	2.878
404.575	2.873
405.575	2.868
406.575	2.864
407.575	2.859
408.575	2.855
409.575	2.851
410.575	2.846
411.575	2.843
412.575	2.839
413.575	2.835
414.575	2.831
415.575	2.828
416.575	2.825
417.575	2.822
418.575	2.819
419.575	2.816
420.575	2.813
421.575	2.811
422.575	2.808
423.575	2.806
424.575	2.804
425.575	2.802
426.575	2.8
427.575	2.798
428.575	2.797
429.575	2.796
430.575	2.794
431.575	2.793
432.575	2.793
433.575	2.792
434.575	2.791
435.575	2.791
436.575	2.791
437.575	2.791
438.575	2.791
439.575	2.791
440.575	2.792
441.575	2.793
442.575	2.794
443.575	2.795
444.575	2.796
445.575	2.798
446.575	2.799
447.575	2.801
448.575	2.803
449.575	2.806
450.575	2.808
451.575	2.811
452.575	2.814
453.575	2.817
454.575	2.82
455.575	2.824
455.928	2.824
456.928	2.829
457.928	2.834
458.928	2.839
459.928	2.845
460.928	2.851
461.928	2.857
462.928	2.864
463.928	2.87
464.928	2.877
465.928	2.884
466.928	2.891
467.928	2.899
468.928	2.906
469.928	2.913
470.928	2.921
471.928	2.928
472.928	2.935
473.928	2.943
474.928	2.95
475.928	2.957
476.928	2.964
477.928	2.971
478.928	2.978
479.928	2.985
480.928	2.992
481.928	2.999
482.928	3.005
483.928	3.011
484.928	3.018
485.928	3.024
486.928	3.03
487.928	3.035
488.928	3.041
489.928	3.046
490.928	3.052
491.928	3.057
492.928	3.062
493.928	3.067
494.928	3.071
495.928	3.076
496.928	3.08
497.928	3.084
498.928	3.088
499.928	3.092
500.928	3.096
501.928	3.099
502.928	3.103
503.928	3.106
504.928	3.109
505.928	3.111
506.928	3.114
507.928	3.116
508.928	3.119
509.928	3.121
510.928	3.122
511.928	3.124
512.928	3.125
513.928	3.127
514.928	3.128
515.928	3.129
516.928	3.129
517.928	3.13
518.928	3.13
519.928	3.13
520.928	3.13
521.928	3.129
522.928	3.128
523.928	3.127
524.928	3.126
525.928	3.125
526.928	3.123
527.928	3.122
528.928	3.12
529.928	3.117
530.928	3.115
531.928	3.112
532.928	3.109
533.928	3.106
534.928	3.103
535.928	3.1
536.928	3.096
537.649	3.096
538.649	3.09
539.649	3.084
540.649	3.079
541.649	3.074
542.649	3.07
543.649	3.066
544.649	3.062
545.649	3.058
546.649	3.054
547.649	3.051
548.649	3.047
549.649	3.044
550.649	3.04
551.649	3.036
552.649	3.032
553.649	3.028
554.649	3.024
555.649	3.019
556.649	3.014
557.649	3.008
558.649	3.002
559.649	2.995
560.649	2.988
561.649	2.98
562.649	2.972
563.649	2.963
564.649	2.953
565.649	2.942
566.649	2.93
567.649	2.917
568.649	2.904
570.092	2.886
571.092	2.872
572.092	2.854
573.092	2.833
574.092	2.806
575.092	2.771
576.115	2.721
