Uv/Vis Spectrum: Benz[a]anthracene, 4-methyl-
Formula: C19H14
CAS: 316-49-4
Melting point: 126.9-127.4
Instrument: Cary 11 M
Origin: INSTITUTE OF ENERGY PROBLEMS OF CHEMICAL PHYSICS, RAS
Wavelength (nm)	Logarithm epsilon
301.8	4.054
302.45	4.023
303.11	3.971
303.77	3.926
304.44	3.874
305.1	3.785
305.77	3.752
306.44	3.751
306.78	3.749
307.12	3.748
307.46	3.747
307.8	3.745
308.14	3.744
308.48	3.742
308.87	3.714
309.52	3.599
309.85	3.586
310.2	3.578
310.54	3.572
310.89	3.568
311.23	3.564
311.58	3.563
311.93	3.563
312.31	3.564
312.63	3.568
312.98	3.572
313.33	3.576
313.68	3.58
314.04	3.584
314.39	3.588
314.8	3.594
315.11	3.6
315.46	3.606
315.82	3.612
316.18	3.617
316.54	3.623
316.94	3.629
317.25	3.636
317.62	3.642
317.98	3.648
318.35	3.654
318.71	3.659
319.07	3.664
319.44	3.669
319.8	3.674
320.17	3.679
320.54	3.684
320.91	3.687
321.28	3.685
321.65	3.687
322.02	3.688
322.39	3.69
322.77	3.688
323.14	3.687
323.52	3.685
323.89	3.684
324.27	3.684
324.65	3.684
325.03	3.685
325.4	3.688
325.79	3.692
326.17	3.698
326.55	3.701
326.93	3.707
327.32	3.713
327.7	3.719
328.09	3.727
328.47	3.734
328.86	3.741
329.25	3.749
329.64	3.766
330.03	3.771
330.42	3.78
330.81	3.788
331.22	3.795
331.6	3.802
331.99	3.806
332.39	3.806
332.79	3.807
333.19	3.807
333.58	3.808
333.98	3.808
334.38	3.808
334.78	3.808
335.19	3.809
335.59	3.806
336	3.804
336.4	3.799
336.81	3.794
337.21	3.788
337.62	3.783
338.03	3.778
338.44	3.772
338.85	3.767
339.27	3.762
339.68	3.76
340.09	3.76
340.51	3.76
340.94	3.761
341.34	3.763
341.76	3.767
342.19	3.772
342.59	3.777
343.02	3.783
343.42	3.79
343.87	3.798
344.3	3.806
344.72	3.82
345.15	3.834
345.58	3.85
346	3.863
346.43	3.871
346.87	3.865
347.3	3.851
347.73	3.837
348.17	3.825
348.6	3.818
349.04	3.814
349.48	3.811
349.91	3.808
350.35	3.805
350.79	3.802
351.24	3.799
351.68	3.797
352.12	3.794
352.57	3.79
353.02	3.785
353.46	3.78
353.99	3.77
354.41	3.76
354.81	3.749
355.27	3.729
355.78	3.702
356.17	3.677
356.6	3.666
357.09	3.66
357.55	3.657
358	3.657
358.47	3.657
358.92	3.66
359.37	3.665
359.85	3.675
360.32	3.687
360.78	3.698
361.25	3.71
361.72	3.724
362.19	3.731
362.66	3.737
363.13	3.737
363.61	3.713
364.08	3.684
364.56	3.648
365.06	3.614
365.51	3.592
365.99	3.576
366.44	3.573
366.96	3.572
367.44	3.574
367.93	3.578
368.41	3.584
368.88	3.576
369.39	3.53
369.88	3.466
370.37	3.403
370.88	3.358
371.37	3.325
371.85	3.295
372.45	3.26
372.85	3.241
373.35	3.213
373.85	3.193
374.35	3.173
374.85	3.157
375.36	3.146
375.86	3.135
376.37	3.123
376.88	3.112
377.39	3.105
377.9	3.105
378.42	3.099
378.93	3.086
379.45	3.06
379.96	3.017
380.48	2.994
381	2.978
381.51	2.968
382.03	2.963
382.57	2.961
383.1	2.961
383.62	2.97
384.15	2.986
384.74	3.008
385.39	3.048
385.75	3.086
386.32	3.19
386.82	3.227
387.36	3.265
387.62	3.264
388.16	3.208
388.7	3.146
389.25	3.093
389.79	3.053
390.31	3.015
390.84	2.985
391.39	2.957
391.98	2.935
392.54	2.917
393.09	2.897
393.65	2.877
