Uv/Vis Spectrum: Benz[a]anthracene, 6-methyl-
Formula: C19H14
CAS: 316-14-3
Melting point: 152.3-152.8
Instrument: Cary 11 M
Origin: INSTITUTE OF ENERGY PROBLEMS OF CHEMICAL PHYSICS, RAS
Wavelength (nm)	Logarithm epsilon
226.45	4.745
226.65	4.741
226.85	4.738
227.06	4.735
227.26	4.731
227.46	4.728
227.66	4.725
227.86	4.722
228.07	4.719
228.27	4.717
228.48	4.716
228.68	4.713
228.88	4.711
229.09	4.709
229.29	4.706
229.5	4.703
229.71	4.701
229.91	4.7
230.12	4.698
230.33	4.696
230.53	4.695
230.74	4.695
230.95	4.693
231.16	4.693
231.37	4.691
231.58	4.689
231.79	4.688
232	4.688
232.21	4.686
232.42	4.686
232.63	4.686
232.84	4.684
233.06	4.684
233.27	4.684
233.51	4.683
233.73	4.683
233.91	4.683
234.12	4.681
234.34	4.679
234.55	4.677
234.77	4.677
234.98	4.676
235.2	4.674
235.41	4.67
235.63	4.668
235.85	4.665
236.04	4.662
236.28	4.658
236.5	4.652
236.72	4.649
236.94	4.643
237.16	4.637
237.46	4.629
237.67	4.623
237.86	4.615
238.04	4.61
238.27	4.599
238.49	4.591
238.71	4.582
238.93	4.573
239.16	4.565
239.38	4.558
239.61	4.551
239.83	4.546
240.02	4.54
240.28	4.534
240.51	4.529
240.73	4.524
240.96	4.519
241.19	4.514
241.41	4.509
241.64	4.504
241.87	4.499
242.1	4.496
242.31	4.492
242.54	4.488
242.76	4.485
243.02	4.483
243.25	4.483
243.48	4.483
243.71	4.483
243.95	4.483
244.21	4.484
244.41	4.485
244.64	4.488
244.88	4.491
245.12	4.496
245.35	4.499
247.73	4.541
247.96	4.546
248.21	4.551
248.45	4.553
248.69	4.555
248.93	4.56
249.18	4.562
249.42	4.565
249.66	4.569
249.91	4.571
250.15	4.576
250.4	4.578
250.64	4.582
250.89	4.587
251.13	4.591
251.38	4.595
251.63	4.599
251.87	4.603
252.12	4.608
252.37	4.614
252.62	4.618
252.87	4.624
253.12	4.628
253.37	4.631
253.62	4.635
253.87	4.641
254.13	4.645
254.38	4.65
254.67	4.654
254.89	4.658
255.14	4.661
255.4	4.667
255.65	4.669
255.91	4.669
256.16	4.67
256.42	4.669
256.68	4.667
256.94	4.663
257.19	4.661
257.45	4.66
257.71	4.66
257.97	4.66
258.18	4.661
258.49	4.663
258.75	4.663
259.02	4.665
259.28	4.665
259.54	4.667
259.81	4.665
260.07	4.665
260.34	4.665
260.6	4.663
260.87	4.663
261.13	4.66
261.4	4.658
261.67	4.654
261.93	4.65
262.2	4.649
262.47	4.643
262.74	4.639
263.01	4.633
263.28	4.626
263.55	4.618
263.83	4.608
264.1	4.599
264.37	4.593
264.65	4.589
264.92	4.584
265.19	4.58
265.47	4.578
265.76	4.576
266	4.575
266.3	4.576
266.58	4.578
266.85	4.58
267.13	4.582
267.41	4.584
267.69	4.589
267.97	4.593
268.25	4.597
268.53	4.606
268.82	4.612
269.1	4.62
269.38	4.626
269.67	4.631
269.95	4.639
270.24	4.647
270.52	4.65
270.81	4.658
271.1	4.663
271.38	4.669
271.67	4.676
271.96	4.679
272.25	4.684
272.54	4.689
272.83	4.693
273.12	4.696
273.42	4.7
273.71	4.701
274	4.7
274.29	4.696
274.59	4.693
274.88	4.689
275.18	4.689
275.48	4.691
275.77	4.693
276.07	4.696
276.37	4.701
276.67	4.708
276.97	4.716
277.27	4.724
277.57	4.733
277.87	4.747
278.17	4.76
278.48	4.774
278.78	4.793
279.08	4.81
279.39	4.82
279.69	4.834
280	4.846
280.31	4.859
280.61	4.871
280.92	4.878
281.23	4.881
281.54	4.885
281.85	4.889
282.16	4.894
282.47	4.897
282.79	4.902
283.1	4.91
283.41	4.912
283.73	4.912
284.04	4.901
284.36	4.881
284.69	4.854
284.96	4.833
285.22	4.821
285.63	4.813
285.95	4.809
286.27	4.809
286.59	4.809
286.91	4.81
287.23	4.813
287.56	4.818
287.88	4.825
288.2	4.838
288.53	4.855
288.85	4.875
289.1	4.897
289.34	4.921
289.55	4.936
289.84	4.946
290.16	4.962
290.32	4.98
290.56	4.986
290.82	4.989
291.16	4.984
291.49	4.969
291.77	4.961
292.15	4.956
292.49	4.956
292.85	4.957
293.16	4.96
293.49	4.962
293.83	4.962
294.17	4.956
294.51	4.929
294.89	4.894
295.19	4.868
295.53	4.834
295.87	4.794
296.21	4.758
296.56	4.716
296.9	4.674
297.25	4.616
297.59	4.562
297.94	4.496
298.29	4.415
298.4	4.39
298.63	4.346
298.98	4.311
299.27	4.295
299.46	4.29
299.68	4.286
300.09	4.283
300.39	4.281
300.74	4.277
301.1	4.272
301.45	4.268
301.81	4.259
302.16	4.25
302.52	4.25
302.88	4.254
303.13	4.258
303.37	4.264
303.6	4.272
303.96	4.302
304.11	4.318
304.32	4.342
304.68	4.382
304.77	4.387
304.9	4.39
305.08	4.381
305.41	4.36
305.78	4.307
306.14	4.259
306.27	4.24
306.51	4.216
306.88	4.168
307.24	4.145
307.61	4.126
307.8	4.117
307.98	4.107
308.17	4.101
308.36	4.094
308.54	4.087
308.67	4.082
308.81	4.077
308.91	4.072
309.02	4.067
309.1	4.059
