Uv/Vis Spectrum: 2-nitrodibenzo[c,e][1,2]dithiin
Formula: C12H7NO2S2
CAS: 31924-56-8
Instrument: SFD-2
Origin: INSTITUTE OF ENERGY PROBLEMS OF CHEMICAL PHYSICS, RAS
Wavelength (nm)	Logarithm epsilon
217.783	4.173
218.783	4.158
219.783	4.146
220.783	4.136
221.783	4.127
222.783	4.119
223.783	4.11
224.783	4.102
225.783	4.093
226.783	4.084
227.783	4.075
228.783	4.067
229.783	4.059
230.783	4.051
231.783	4.044
232.783	4.039
233.783	4.035
234.783	4.032
235.783	4.031
236.783	4.032
237.783	4.035
238.783	4.039
239.783	4.045
240.783	4.053
241.783	4.062
242.783	4.071
243.783	4.081
244.783	4.092
245.783	4.102
246.783	4.111
247.783	4.119
248.783	4.125
249.783	4.129
250.783	4.13
251.783	4.128
252.783	4.124
253.783	4.116
254.783	4.105
255.282	4.098
256.282	4.083
257.282	4.069
258.282	4.055
259.282	4.042
260.282	4.03
261.282	4.02
262.282	4.011
263.282	4.005
264.282	4
265.282	3.997
266.282	3.997
267.282	3.998
268.282	4.001
269.282	4.006
270.282	4.014
270.442	4.014
271.442	4.02
272.442	4.026
273.442	4.032
274.442	4.038
275.442	4.042
276.442	4.047
277.442	4.05
278.442	4.052
279.442	4.052
280.442	4.052
281.442	4.05
282.442	4.047
283.442	4.043
284.442	4.037
285.442	4.03
286.442	4.022
287.442	4.013
288.442	4.003
289.442	3.992
290.442	3.981
291.442	3.97
292.442	3.958
293.442	3.947
294.442	3.937
295.442	3.927
295.533	3.929
296.533	3.917
297.533	3.909
298.533	3.905
299.533	3.904
300.533	3.904
301.533	3.906
302.533	3.908
303.533	3.911
304.533	3.913
305.533	3.914
306.533	3.915
307.533	3.915
308.533	3.913
309.533	3.911
310.533	3.907
311.533	3.902
312.533	3.896
313.533	3.89
314.533	3.882
315.533	3.874
316.533	3.866
317.533	3.857
318.533	3.848
319.533	3.839
320.533	3.83
321.533	3.821
322.533	3.813
323.533	3.804
324.533	3.796
325.533	3.788
326.533	3.78
327.533	3.771
328.533	3.762
329.533	3.751
330.533	3.739
331.533	3.725
332.533	3.707
333.533	3.686
334.533	3.66
335.097	3.646
336.097	3.598
337.097	3.558
338.097	3.523
339.097	3.494
340.097	3.468
341.097	3.446
342.097	3.426
343.097	3.408
344.097	3.39
345.097	3.374
346.097	3.357
347.097	3.341
348.097	3.325
349.097	3.308
350.097	3.291
351.097	3.273
352.097	3.255
353.097	3.237
354.097	3.219
355.097	3.2
356.097	3.182
357.097	3.164
358.097	3.146
359.097	3.129
360.097	3.113
361.097	3.097
362.097	3.083
363.097	3.07
364.097	3.058
365.097	3.047
366.097	3.038
367.097	3.03
368.097	3.023
369.097	3.016
370.097	3.011
371.097	3.005
372.097	2.999
372.94	2.989
373.94	2.984
374.94	2.98
375.94	2.976
376.94	2.972
377.94	2.969
378.94	2.965
379.94	2.962
380.94	2.959
381.94	2.955
382.94	2.952
383.94	2.949
384.94	2.946
385.94	2.943
386.94	2.94
387.94	2.937
388.94	2.933
389.94	2.93
390.94	2.926
391.94	2.921
392.94	2.917
393.94	2.912
394.94	2.906
395.94	2.9
396.94	2.893
397.94	2.886
398.94	2.878
399.94	2.869
400.94	2.86
401.94	2.849
402.94	2.838
403.94	2.826
404.94	2.814
405.94	2.8
406.94	2.786
407.94	2.771
408.94	2.755
409.94	2.738
410.94	2.72
411.94	2.702
412.94	2.683
413.94	2.664
414.567	2.659
415.567	2.632
416.567	2.607
417.567	2.584
418.567	2.562
419.567	2.54
420.567	2.518
421.567	2.496
422.567	2.473
423.567	2.449
424.567	2.424
425.567	2.398
426.567	2.37
427.567	2.341
428.567	2.311
429.567	2.281
430.567	2.249
431.567	2.218
432.567	2.187
433.567	2.157
434.567	2.129
435.567	2.103
436.567	2.081
