Uv/Vis Spectrum: Benzene, 1,3,5-trichloro-2,4,6-trifluoro-
Formula: C6Cl3F3
CAS: 319-88-0
Melting point: 62.2-63.0
Instrument: SFD-2
Origin: INSTITUTE OF ENERGY PROBLEMS OF CHEMICAL PHYSICS, RAS
Wavelength (nm)	Logarithm epsilon
221.77	3.771
222.26	3.726
222.74	3.681
223.23	3.637
223.71	3.592
224.68	3.547
225.65	3.502
227.1	3.462
228.55	3.418
230.48	3.378
232.9	3.343
235.81	3.308
238.71	3.273
240.65	3.233
242.1	3.194
243.06	3.149
244.03	3.104
245	3.059
245.48	3.014
246.45	2.97
247.42	2.925
247.9	2.88
248.87	2.835
249.84	2.79
250.32	2.746
250.81	2.701
251.29	2.656
252.26	2.611
252.74	2.567
253.71	2.522
255.16	2.482
257.1	2.442
259.52	2.407
263.39	2.382
267.74	2.382
272.1	2.387
275.97	2.362
277.9	2.323
279.84	2.283
