Uv/Vis Spectrum: 1-Fluoronaphthalene
Formula: C10H7F
CAS: 321-38-0
Melting point: -9
Boiling point: 215; 80(11)
Instrument: n.i.g.
Origin: INSTITUTE OF ENERGY PROBLEMS OF CHEMICAL PHYSICS, RAS
Wavelength (nm)	Logarithm epsilon
204.292	3.96635
204.598	3.97222
204.91	3.97808
205.234	3.98395
206.61	4.01831
206.713	4.02083
206.821	4.02334
206.941	4.02586
208.418	4.06022
208.547	4.06522
208.681	4.07003
208.826	4.07447
212.851	4.4642
212.851	4.4759
212.851	4.48741
212.851	4.49856
213.284	4.56142
213.412	4.57315
213.546	4.58488
213.692	4.59662
214.328	4.65529
214.405	4.66115
214.481	4.66702
214.558	4.67289
217.615	4.77765
217.718	4.78014
217.826	4.78243
217.946	4.78436
219.194	4.79861
219.815	4.79597
220.119	4.79314
220.366	4.78771
221.105	4.74916
221.105	4.75415
221.105	4.75896
221.105	4.7634
222.811	4.62428
222.87	4.61506
222.94	4.60584
223.015	4.59662
224.493	4.4776
224.519	4.47233
224.551	4.46668
224.595	4.46084
225.333	4.38709
225.333	4.39208
225.333	4.3969
225.333	4.40134
226.174	4.28987
226.174	4.29908
226.174	4.3083
226.174	4.31752
226.811	4.2203
226.811	4.2253
226.811	4.23011
226.811	4.23455
227.448	4.15744
227.448	4.16244
227.448	4.16725
227.448	4.17169
228.314	4.08788
228.373	4.07674
228.442	4.06522
228.518	4.05351
229.155	4.0049
229.181	3.99904
229.213	3.99317
229.257	3.9873
229.995	3.9278
230.054	3.91858
230.124	3.90936
230.199	3.90014
230.836	3.85153
230.912	3.83979
230.989	3.82806
231.065	3.81633
231.677	3.72581
231.677	3.73562
231.677	3.74506
231.677	3.75431
232.11	3.68474
232.168	3.66966
232.238	3.65457
232.314	3.63948
232.543	3.58668
232.543	3.59649
232.543	3.60593
232.543	3.61518
232.747	3.53137
232.773	3.5255
232.805	3.51963
232.849	3.51376
233.282	3.4375
233.308	3.44585
233.34	3.45401
233.383	3.4618
233.587	3.38469
233.664	3.36874
233.74	3.3526
233.816	3.33608
234.02	3.28077
234.02	3.29247
234.02	3.30399
234.02	3.31513
234.428	3.20366
234.428	3.21347
234.428	3.22291
234.428	3.23216
234.657	3.12739
234.657	3.13661
234.657	3.14583
234.657	3.15505
234.849	3.06643
234.861	3.08548
234.933	3.05258
235.294	3.03352
235.931	3.01592
236.211	3.01592
236.491	3.01592
236.772	3.01592
238.682	3.02346
238.81	3.02346
238.945	3.02346
239.09	3.02346
240.363	3.05448
240.498	3.06283
240.645	3.07099
240.797	3.07878
242.147	3.14499
242.18	3.14834
242.224	3.1517
242.274	3.15505
243.217	3.20031
243.243	3.20425
243.275	3.20782
243.319	3.2112
244.388	3.25981
244.517	3.27152
244.651	3.28303
244.796	3.29418
245.662	3.34027
245.721	3.34611
245.791	3.35176
245.866	3.35704
246.911	3.40984
247.045	3.41567
247.192	3.42132
247.344	3.4266
248.413	3.47186
248.542	3.48021
248.676	3.48837
248.821	3.49616
249.891	3.54142
250.019	3.54977
250.153	3.55794
250.299	3.56573
254.96	3.7124
255.095	3.70566
255.242	3.69874
255.393	3.69145
259.622	3.57327
259.902	3.57576
260.183	3.57805
260.463	3.57998
260.769	3.60428
260.947	3.61937
261.125	3.63445
261.304	3.64954
261.737	3.69815
262.075	3.69815
262.425	3.69815
262.781	3.69815
265.532	3.62859
265.635	3.62772
265.744	3.62666
265.864	3.62523
267.239	3.60764
267.654	3.60764
268.081	3.60764
268.513	3.60764
269.354	3.60764
269.692	3.61015
270.042	3.61266
270.398	3.61518
272.105	3.60764
272.59	3.60764
273.08	3.60764
273.582	3.60764
275.162	3.61183
275.399	3.61325
275.647	3.61431
275.901	3.61518
277.607	3.61518
278.244	3.61518
278.881	3.61518
279.518	3.61518
280.155	3.62188
280.461	3.62101
280.774	3.61996
281.097	3.61853
282.473	3.59422
282.678	3.58498
282.888	3.57554
283.11	3.56573
284.154	3.54478
284.814	3.52823
285.49	3.51131
286.371	3.50035
286.702	3.49616
286.837	3.49616
286.983	3.49616
287.135	3.49616
288.179	3.49616
288.206	3.49781
288.238	3.49927
288.281	3.50035
288.281	3.50035
289.437	3.47928
290.038	3.46472
290.599	3.4442
291.567	3.41319
291.626	3.40146
291.696	3.38972
291.771	3.37799
292.204	3.30172
292.204	3.31824
292.204	3.33438
292.204	3.35033
292.408	3.27406
292.765	3.23216
293.121	3.19025
293.478	3.14834
294.115	3.12069
294.282	3.10045
294.5	3.08785
294.955	3.07207
295.592	3.04358
295.694	3.0383
295.796	3.03265
295.898	3.02682
297.07	2.99497
297.172	2.9941
297.274	2.99304
297.376	2.99162
299.184	2.96061
299.319	2.96061
299.466	2.96061
299.617	2.96061
301.095	2.93295
301.3	2.92708
301.51	2.92121
301.732	2.91535
303.209	2.89775
303.446	2.89439
303.694	2.89104
303.948	2.88769
