Uv/Vis Spectrum: 1H-Pyrrol-1-yloxy, 3-(aminocarbonyl)-2,5-dihydro-2,2,5,5-tetramethyl-
Formula: C9H15N2O2
CAS: 3229-73-0
Melting point: 203-204
Instrument: SF-16
Origin: INSTITUTE OF ENERGY PROBLEMS OF CHEMICAL PHYSICS, RAS
Wavelength (nm)	Logarithm epsilon
213.94	4.1
216.08	4.058
218.23	4.016
220.37	3.974
222.51	3.932
224.66	3.89
226.27	3.847
227.87	3.805
229.48	3.763
231.09	3.721
232.7	3.679
234.31	3.637
235.92	3.595
237.52	3.548
239.13	3.5
240.74	3.453
242.35	3.411
243.96	3.369
245.56	3.327
247.17	3.284
249.32	3.242
250.92	3.2
252.53	3.158
254.68	3.116
256.29	3.074
258.43	3.032
260.04	2.99
261.65	2.948
264.33	2.906
265.93	2.863
268.61	2.821
270.76	2.779
272.9	2.737
275.05	2.695
277.73	2.653
279.87	2.611
282.55	2.574
285.23	2.537
288.45	2.506
291.66	2.474
294.88	2.437
298.63	2.406
301.85	2.374
305.6	2.343
309.35	2.311
313.11	2.279
316.32	2.243
320.08	2.211
323.83	2.179
327.58	2.148
330.8	2.116
334.55	2.085
338.84	2.058
