Uv/Vis Spectrum: Naphthalene, 2-fluoro-
Formula: C10H7F
CAS: 323-09-1
Melting point: 61
Boiling point: 212; 90(16)
Instrument: Unicam SP 800
Origin: INSTITUTE OF ENERGY PROBLEMS OF CHEMICAL PHYSICS, RAS
Wavelength (nm)	Logarithm epsilon
211.27	3.59538
211.427	3.59734
211.837	3.60055
212.406	3.60577
212.406	3.60577
212.919	3.60922
213.115	3.61463
213.56	3.61891
213.56	3.61891
213.663	3.62374
213.806	3.62857
213.987	3.63338
214.202	3.63815
214.448	3.64286
214.721	3.6475
215.017	3.65204
215.334	3.65647
215.667	3.66078
216.013	3.66494
216.651	3.6699
216.917	3.67091
217.192	3.67191
217.471	3.67287
218.312	3.67544
218.438	3.67544
218.573	3.67544
218.713	3.67544
219.754	3.67869
220.384	3.67937
220.873	3.67954
221.638	3.67932
222.684	3.67616
222.745	3.67585
222.811	3.67552
222.886	3.67517
223.933	3.67028
223.999	3.66944
224.075	3.66857
224.155	3.66768
224.78	3.66437
224.841	3.66328
224.908	3.66217
224.983	3.66103
225.606	3.65903
225.673	3.65806
225.749	3.65707
225.829	3.65605
226.233	3.65231
226.234	3.65185
226.234	3.65139
226.234	3.65093
226.88	3.64542
226.881	3.64495
226.881	3.64448
226.881	3.64402
227.507	3.63916
227.507	3.63848
227.508	3.63779
227.508	3.63706
227.914	3.63137
227.981	3.63019
228.057	3.62899
228.137	3.62776
228.34	3.6249
228.34	3.62392
228.341	3.62293
228.342	3.62195
228.768	3.61534
228.829	3.61433
228.895	3.61333
228.97	3.61232
229.394	3.60863
229.395	3.60788
229.395	3.60709
229.396	3.60629
229.821	3.601
229.821	3.60048
229.821	3.59996
229.822	3.59944
230.026	3.59323
230.053	3.59285
230.088	3.59247
230.127	3.5921
230.452	3.58693
230.51	3.58552
230.617	3.5839
230.676	3.58139
230.878	3.57976
230.878	3.57898
230.879	3.57818
230.879	3.57734
231.304	3.57247
231.366	3.57057
231.432	3.56864
231.508	3.56666
231.709	3.56506
231.71	3.56393
231.711	3.5628
231.712	3.56167
231.936	3.55579
231.936	3.55464
231.937	3.55348
231.938	3.55233
232.139	3.55067
232.14	3.55009
232.14	3.5495
232.141	3.54892
232.363	3.54633
232.363	3.54515
232.364	3.54397
232.365	3.54278
232.57	3.5357
232.596	3.53501
232.631	3.5343
232.671	3.53355
232.997	3.5249
233.059	3.52311
233.125	3.52127
233.201	3.5194
233.423	3.51662
233.485	3.51491
233.551	3.51319
233.626	3.51146
233.829	3.50717
233.83	3.50624
233.83	3.5053
233.831	3.50431
234.055	3.4976
234.117	3.49569
234.184	3.49373
234.259	3.49174
234.482	3.48772
234.543	3.48589
234.61	3.48406
234.685	3.48221
235.31	3.47663
235.45	3.47663
235.59	3.47664
235.731	3.47664
237.196	3.47567
238.755	3.47609
239.561	3.47661
240.304	3.47768
241.764	3.4853
241.951	3.48812
242.328	3.49159
243.221	3.49864
243.741	3.50304
244.18	3.50738
244.625	3.51165
245.078	3.51585
245.696	3.52141
245.836	3.52298
245.975	3.52451
246.115	3.52601
246.733	3.53231
246.815	3.53427
246.923	3.53543
247.152	3.5368
247.371	3.53946
247.496	3.54097
247.631	3.54243
247.769	3.54388
248.409	3.54825
248.535	3.54915
248.669	3.55001
248.808	3.55084
249.648	3.55507
249.968	3.5547
250.239	3.55404
250.693	3.55252
252.035	3.55509
252.136	3.55542
252.241	3.55573
252.356	3.556
253.495	3.56189
254.373	3.56519
255.167	3.5671
256.301	3.56611
257.348	3.5603
257.414	3.55963
257.49	3.55892
257.57	3.55818
258.394	3.55516
258.561	3.55417
258.737	3.55318
258.917	3.55219
260.482	3.55179
260.762	3.55384
261.041	3.55584
261.321	3.55781
261.321	3.55781
262.565	3.55597
263.503	3.55176
264.416	3.54723
265.582	3.54449
265.902	3.54491
266.244	3.54523
266.59	3.5455
266.945	3.54576
267.365	3.54669
268.931	3.54932
270.254	3.55111
271.641	3.5522
273.399	3.55275
274.443	3.55194
275.131	3.55253
275.827	3.55311
276.527	3.55625
276.527	3.55542
276.528	3.55458
276.528	3.5537
276.528	3.5537
276.828	3.55494
277.135	3.55541
277.45	3.55585
277.77	3.55626
281.101	3.55374
281.308	3.55306
281.524	3.55234
281.745	3.5516
282.79	3.54861
282.816	3.54819
282.851	3.54775
282.891	3.54727
284.036	3.54426
284.176	3.54426
284.317	3.54426
284.457	3.54426
285.902	3.54335
286.042	3.54335
286.183	3.54335
286.323	3.54335
288.412	3.5381
288.513	3.53799
288.613	3.53784
288.714	3.53768
290.08	3.53278
290.081	3.53217
290.081	3.53156
290.081	3.53096
290.927	3.52554
290.988	3.52436
291.055	3.52315
291.13	3.52191
291.755	3.51538
291.781	3.51463
291.817	3.51384
291.857	3.51303
292.382	3.506
292.449	3.50471
292.525	3.50341
292.605	3.50211
293.23	3.49632
293.371	3.49452
293.512	3.49273
293.654	3.49092
294.057	3.48747
294.44	3.48332
294.823	3.4791
295.207	3.4748
295.75	3.47123
296.408	3.46394
297.31	3.45595
298.249	3.44841
