Uv/Vis Spectrum: 2-bromo-3-(1-methyl-1H-benzimidazol-2-yl)-2-propenoic acid, methyl ester
Formula: C12H11BrN2O2
CAS: 32579-02-5
Melting point: 186 (dec.)
Instrument: SF-4A
Origin: INSTITUTE OF ENERGY PROBLEMS OF CHEMICAL PHYSICS, RAS
Wavelength (nm)	Logarithm epsilon
228.284	4.511
229.284	4.492
230.284	4.472
231.284	4.451
232.284	4.426
233.284	4.397
234.284	4.362
235.284	4.321
236.284	4.273
237.284	4.221
238.284	4.164
239.284	4.105
240.284	4.046
241.284	3.989
242.284	3.937
243.284	3.893
244.284	3.859
245.284	3.838
246.284	3.83
247.284	3.834
248.284	3.85
249.4	3.872
250.4	3.888
251.4	3.904
252.4	3.922
253.4	3.94
254.4	3.958
255.4	3.976
256.4	3.994
257.4	4.011
258.4	4.028
259.4	4.044
260.4	4.059
261.4	4.074
262.4	4.087
263.4	4.1
264.4	4.112
265.4	4.123
266.4	4.134
267.4	4.143
268.4	4.152
269.4	4.16
270.4	4.168
271.4	4.175
272.4	4.181
273.4	4.187
274.4	4.192
275.4	4.196
276.4	4.199
277.4	4.201
278.4	4.201
279.4	4.2
280.4	4.196
280.466	4.196
281.466	4.187
282.466	4.177
283.466	4.166
284.466	4.156
285.466	4.147
286.466	4.139
287.466	4.132
288.466	4.127
289.466	4.125
290.466	4.124
291.466	4.125
292.466	4.129
293.466	4.134
294.466	4.141
295.466	4.15
296.466	4.16
297.466	4.171
298.466	4.183
299.466	4.195
300.466	4.207
301.466	4.218
302.466	4.229
303.466	4.237
304.466	4.243
305.466	4.246
306.466	4.244
307.466	4.238
308.466	4.226
309.466	4.207
310.466	4.18
311.466	4.144
312.466	4.097
313.466	4.037
314.466	3.964
314.525	3.964
315.525	3.861
316.525	3.774
317.525	3.697
318.525	3.626
319.525	3.558
320.525	3.492
321.525	3.425
322.525	3.358
323.525	3.291
324.525	3.224
325.525	3.159
326.525	3.096
327.525	3.036
328.525	2.982
329.463	2.933
330.463	2.895
331.463	2.862
332.463	2.832
333.463	2.806
334.463	2.782
335.463	2.759
336.463	2.739
337.463	2.72
338.463	2.703
339.463	2.687
340.463	2.673
341.463	2.66
342.463	2.649
343.463	2.639
344.463	2.631
345.463	2.625
346.463	2.621
347.463	2.618
348.463	2.615
349.463	2.614
350.463	2.612
351.463	2.609
352.463	2.604
353.463	2.595
354.463	2.58
