Uv/Vis Spectrum: 1,3-Butanedione, 4,4,4-trifluoro-1-phenyl-
Formula: C10H7F3O2
CAS: 326-06-7
Melting point: 38-40
Boiling point: 224
Instrument: unknown
Origin: INSTITUTE OF ENERGY PROBLEMS OF CHEMICAL PHYSICS, RAS
Wavelength (nm)	Logarithm epsilon
215.29	4.339
215.45	4.339
215.63	4.337
215.8	4.334
215.99	4.332
216.21	4.326
216.97	4.31
217.82	4.305
218.8	4.313
219.5	4.326
220.34	4.33
221.18	4.33
222.02	4.326
222.86	4.322
223.7	4.322
224.54	4.318
225.38	4.318
226.22	4.318
227.06	4.322
227.9	4.314
228.74	4.285
229.58	4.243
230.42	4.201
231.26	4.168
232.1	4.131
232.94	4.089
233.78	4.047
234.43	4.02
235.46	3.977
236.3	3.948
237.14	3.935
238	3.934
238.82	3.948
239.66	3.968
240.5	3.989
241.34	4.018
242.19	4.056
243.03	4.081
243.87	4.11
244.71	4.135
245.55	4.16
246.39	4.189
247.23	4.206
248.07	4.222
248.91	4.243
249.75	4.255
250.59	4.272
251.43	4.289
252.27	4.305
253.11	4.314
253.95	4.33
254.79	4.343
255.63	4.351
256.47	4.359
257.31	4.364
258.15	4.372
258.99	4.384
259.83	4.393
260.67	4.401
261.59	4.404
262.38	4.406
263.19	4.405
264.03	4.401
264.87	4.397
265.72	4.394
266.57	4.393
267.4	4.393
268.24	4.397
269.08	4.401
269.98	4.406
270.76	4.414
271.6	4.418
272.44	4.426
273.28	4.434
274.12	4.447
275.02	4.458
275.8	4.472
276.59	4.483
277.48	4.497
278.49	4.515
279.16	4.526
280	4.542
280.84	4.555
281.68	4.572
282.52	4.588
283.36	4.601
284.18	4.612
285.04	4.626
285.88	4.638
286.72	4.646
287.56	4.659
288.4	4.667
289.22	4.674
290.14	4.679
290.93	4.684
291.77	4.688
292.76	4.696
293.61	4.703
294.33	4.712
295.13	4.721
295.97	4.731
296.81	4.738
297.65	4.742
298.49	4.746
299.33	4.75
300.17	4.755
301.01	4.759
301.85	4.763
302.68	4.769
303.53	4.775
304.51	4.779
305.12	4.783
305.99	4.785
306.89	4.788
307.64	4.79
308.57	4.792
309.29	4.794
310.16	4.798
311.09	4.805
311.93	4.809
312.77	4.813
313.61	4.817
314.46	4.821
315.38	4.827
316.14	4.834
316.94	4.84
317.82	4.846
318.66	4.85
319.55	4.855
320.34	4.859
321.18	4.863
321.98	4.866
322.86	4.867
323.7	4.867
324.54	4.867
325.38	4.866
326.22	4.863
327.03	4.857
327.9	4.85
328.74	4.846
329.55	4.841
330.42	4.836
331.26	4.829
332.1	4.825
332.68	4.821
333.78	4.813
334.59	4.805
335.46	4.796
336.3	4.784
337.14	4.775
337.98	4.763
338.83	4.75
339.67	4.734
341.35	4.705
342.19	4.688
343.03	4.676
343.87	4.659
344.71	4.638
345.55	4.617
346.39	4.597
347.23	4.576
348.07	4.555
348.91	4.522
349.75	4.493
350.59	4.459
351.43	4.418
352.27	4.376
353.11	4.334
353.95	4.293
354.79	4.247
355.63	4.181
356.47	4.118
357.31	4.052
358.23	3.955
358.76	3.91
359.62	3.845
360.49	3.788
361.51	3.706
362.35	3.632
363.2	3.532
364.04	3.378
364.2	3.378
364.54	3.32
365.04	3.22
365.55	3.078
366.05	2.97
366.56	2.82
367.06	2.746
367.56	2.637
367.95	2.545
368.57	2.459
368.99	2.411
369.41	2.384
369.92	2.338
370.23	2.293
370.93	2.238
371.43	2.209
371.93	2.163
372.44	2.13
372.94	2.092
