Uv/Vis Spectrum: 2-Methoxyanthraquinone
Formula: C15H10O3
CAS: 3274-20-2
Melting point: 195-196
Instrument: SF-16
Origin: INSTITUTE OF ENERGY PROBLEMS OF CHEMICAL PHYSICS, RAS
Wavelength (nm)	Logarithm epsilon
209.01	4.376
210.6	4.349
212.19	4.333
213.78	4.312
215.37	4.291
216.96	4.265
218.55	4.238
220.14	4.212
221.73	4.18
223.32	4.169
224.91	4.159
226.5	4.164
228.09	4.175
229.68	4.191
231.27	4.212
232.86	4.228
234.44	4.254
236.03	4.27
237.62	4.291
239.21	4.302
240.8	4.317
242.39	4.323
243.98	4.333
245.57	4.333
247.16	4.328
248.75	4.323
250.34	4.328
251.93	4.344
253.52	4.365
255.11	4.407
256.7	4.444
258.29	4.481
259.88	4.508
261.47	4.524
263.06	4.534
264.65	4.545
266.24	4.555
267.83	4.555
269.42	4.545
271.01	4.539
272.6	4.518
274.19	4.497
275.78	4.465
277.37	4.444
278.96	4.413
280.55	4.381
282.14	4.328
283.73	4.249
285.32	4.138
290.09	3.942
291.68	3.789
293.27	3.652
296.45	3.599
298.04	3.583
299.63	3.567
301.22	3.551
302.81	3.541
304.39	3.541
305.98	3.541
307.57	3.541
309.16	3.546
310.75	3.546
312.34	3.556
313.93	3.562
315.52	3.572
317.11	3.583
318.7	3.593
320.29	3.604
321.88	3.609
323.47	3.615
325.06	3.615
326.65	3.609
328.24	3.604
329.83	3.599
331.42	3.588
333.01	3.583
334.6	3.572
336.19	3.562
337.78	3.546
339.37	3.541
340.96	3.525
342.55	3.509
347.32	3.488
348.91	3.493
350.5	3.498
352.09	3.504
353.68	3.509
355.27	3.514
356.86	3.514
358.45	3.519
360.04	3.519
361.63	3.519
363.22	3.519
364.81	3.519
366.4	3.519
367.99	3.509
369.58	3.504
371.17	3.493
372.75	3.482
374.34	3.472
375.93	3.461
377.52	3.451
379.11	3.43
380.7	3.408
382.29	3.387
383.88	3.361
385.47	3.334
387.06	3.313
388.65	3.287
390.24	3.255
391.83	3.239
393.42	3.229
395.01	3.197
396.6	3.171
398.19	3.144
399.78	3.118
401.37	3.091
402.96	3.07
404.55	3.038
406.14	2.996
407.73	2.954
409.32	2.912
410.91	2.869
412.5	2.832
414.09	2.785
415.68	2.732
417.27	2.679
418.86	2.621
420.45	2.563
422.04	2.526
423.63	2.468
425.22	2.41
426.81	2.351
428.4	2.293
429.99	2.24
431.58	2.182
433.17	2.129
434.76	2.082
436.35	2.029
