Uv/Vis Spectrum: Phenyl methyl difluorosilane
Formula: C7H8F2Si
CAS: 328-57-4
Boiling point: 69/ 53 mm
Instrument: Spektromom 201
Origin: INSTITUTE OF ENERGY PROBLEMS OF CHEMICAL PHYSICS, RAS
Wavelength (nm)	Logarithm epsilon
202.37	3.623
203.73	3.606
205.26	3.606
206.27	3.63
206.95	3.657
207.63	3.684
208.14	3.712
208.99	3.739
209.67	3.766
210.17	3.797
210.85	3.824
211.87	3.844
213.4	3.841
214.58	3.824
215.26	3.797
215.94	3.769
216.45	3.742
217.13	3.715
217.47	3.684
217.97	3.657
218.14	3.627
218.31	3.596
218.65	3.565
218.82	3.535
218.99	3.504
219.33	3.474
221.54	3.134
222.21	3.008
222.89	2.862
223.57	2.705
224.25	2.569
224.93	2.433
225.61	2.284
226.28	2.131
226.96	1.992
227.64	1.866
228.32	1.716
229	1.584
229.68	1.471
230.35	1.387
231.03	1.332
231.71	1.295
232.39	1.285
233.07	1.308
233.74	1.353
234.42	1.403
235.1	1.444
235.95	1.495
236.46	1.522
237.14	1.55
237.65	1.577
238.32	1.604
238.83	1.635
239.34	1.665
240.02	1.692
240.53	1.723
241.04	1.754
241.55	1.784
242.05	1.815
242.56	1.845
243.07	1.873
243.58	1.903
244.26	1.93
244.43	1.961
244.94	1.992
245.45	2.022
246.12	2.049
246.46	2.08
246.97	2.111
247.65	2.138
248.16	2.168
248.67	2.199
249.18	2.23
249.68	2.26
250.19	2.291
251.04	2.318
251.72	2.345
252.91	2.362
253.92	2.383
254.94	2.406
255.62	2.433
256.47	2.461
257.15	2.488
257.82	2.515
258.33	2.542
259.18	2.59
259.35	2.59
259.52	2.593
259.69	2.597
259.86	2.6
260.03	2.6
260.2	2.607
260.37	2.607
260.54	2.6
260.71	2.6
260.88	2.597
261.05	2.593
261.22	2.59
261.39	2.583
261.55	2.573
261.72	2.566
261.89	2.552
262.06	2.539
262.23	2.539
262.4	2.546
262.57	2.546
262.74	2.552
262.91	2.559
263.76	2.603
263.93	2.61
264.1	2.62
264.27	2.631
264.44	2.644
264.78	2.665
264.95	2.678
265.4	2.706
265.79	2.722
265.96	2.726
266.13	2.722
266.3	2.715
266.47	2.705
266.81	2.675
266.98	2.658
267.32	2.627
267.49	2.614
267.66	2.6
267.83	2.586
268	2.572
268.34	2.549
268.51	2.535
269.02	2.491
269.19	2.484
269.35	2.474
269.52	2.467
269.69	2.471
269.86	2.484
270.03	2.495
270.2	2.508
270.71	2.546
271.22	2.603
271.39	2.614
271.56	2.631
271.73	2.634
271.9	2.634
272.07	2.631
272.24	2.627
272.41	2.624
272.58	2.617
272.75	2.597
272.92	2.58
273.09	2.549
273.26	2.508
273.42	2.471
274.1	2.413
274.27	2.379
274.44	2.318
274.61	2.267
274.78	2.23
274.95	2.189
275.12	2.141
275.29	2.107
275.46	2.066
275.63	2.026
276.14	1.937
276.48	1.866
277.16	1.692
277.83	1.492
278.51	1.315
279.19	1.166
279.87	0.965
