Uv/Vis Spectrum: Oxalacetic acid
Formula: C4H4O5
CAS: 328-42-7
Melting point: 142 dec.
Instrument: Unicam SP 800
Origin: INSTITUTE OF ENERGY PROBLEMS OF CHEMICAL PHYSICS, RAS
Wavelength (nm)	Logarithm epsilon
221.96	3.236
222.95	3.25
223.95	3.268
224.82	3.285
225.69	3.302
226.43	3.321
227.3	3.336
228.3	3.35
229.04	3.37
229.79	3.386
230.66	3.402
231.53	3.417
232.15	3.434
232.89	3.448
233.52	3.464
234.14	3.479
234.76	3.494
235.38	3.51
236	3.524
236.62	3.537
237.12	3.552
237.49	3.566
237.99	3.58
238.49	3.593
238.86	3.606
239.48	3.619
239.85	3.631
240.23	3.643
240.6	3.655
241.1	3.666
241.47	3.677
241.97	3.688
242.34	3.698
242.71	3.708
243.08	3.718
243.46	3.729
243.83	3.739
244.33	3.748
244.7	3.758
245.07	3.768
245.45	3.777
245.82	3.787
246.19	3.795
246.56	3.803
246.94	3.811
247.31	3.819
247.68	3.827
248.06	3.836
248.43	3.843
248.93	3.85
249.3	3.858
249.67	3.865
250.04	3.872
250.42	3.879
250.79	3.885
251.41	3.891
251.78	3.898
252.28	3.904
252.78	3.911
253.27	3.917
253.77	3.923
254.39	3.929
255.01	3.935
255.64	3.94
256.26	3.945
257.13	3.949
258	3.953
258.99	3.957
260.11	3.959
261.23	3.961
262.35	3.962
263.46	3.961
264.46	3.959
265.45	3.957
266.45	3.953
267.32	3.949
268.06	3.945
268.81	3.941
269.55	3.936
270.18	3.93
270.67	3.924
271.29	3.918
271.79	3.912
272.29	3.905
272.79	3.899
273.28	3.892
273.65	3.885
274.15	3.879
274.52	3.872
275.02	3.865
275.52	3.858
275.89	3.85
276.26	3.842
276.76	3.835
277.13	3.827
277.51	3.819
278	3.811
278.38	3.802
278.63	3.793
279.12	3.785
279.5	3.776
279.87	3.767
280.24	3.758
280.61	3.748
280.99	3.738
281.36	3.728
281.73	3.717
282.11	3.706
282.48	3.694
282.85	3.682
283.22	3.67
283.6	3.658
283.97	3.644
284.34	3.631
284.71	3.619
285.09	3.605
285.34	3.59
285.71	3.575
286.21	3.561
286.58	3.545
286.95	3.528
287.32	3.51
287.7	3.492
288.19	3.475
288.57	3.455
289.06	3.436
289.44	3.414
289.81	3.392
290.18	3.37
290.68	3.347
291.05	3.321
291.55	3.295
292.05	3.268
292.54	3.239
293.04	3.208
293.66	3.175
294.28	3.139
294.9	3.1
295.53	3.063
296.15	3.022
296.77	2.97
297.39	2.918
298.14	2.869
298.88	2.803
