Uv/Vis Spectrum: 2,4-diphenylyhiophene
Formula: C16H12S
CAS: 3328-86-7
Melting point: 119.5
Instrument: Beckman DK
Origin: INSTITUTE OF ENERGY PROBLEMS OF CHEMICAL PHYSICS, RAS
Wavelength (nm)	Logarithm epsilon
211.818	4.255
212.818	4.208
213.818	4.179
214.818	4.164
215.818	4.158
216.818	4.156
217.818	4.158
218.818	4.16
219.818	4.161
220.818	4.161
221.818	4.159
222.818	4.156
223.818	4.15
224.818	4.143
225.818	4.135
226.818	4.127
227.818	4.119
228.818	4.112
229.818	4.107
230.818	4.103
231.818	4.101
232.818	4.101
233.818	4.103
234.818	4.107
235.818	4.113
236.818	4.12
237.818	4.128
238.818	4.136
239.818	4.145
240.818	4.153
241.818	4.162
242.818	4.17
243.818	4.18
244.5	4.187
245.5	4.201
246.5	4.216
247.5	4.23
248.5	4.244
249.5	4.258
250.5	4.27
251.5	4.281
252.5	4.29
253.5	4.297
254.5	4.302
255.5	4.305
256.5	4.306
257.5	4.305
258.5	4.301
259.5	4.294
260.5	4.286
261.5	4.275
262.5	4.262
263.5	4.247
264.5	4.231
265.5	4.214
266.5	4.196
266.608	4.193
267.608	4.177
268.608	4.162
269.608	4.149
270.608	4.137
271.608	4.126
272.608	4.116
273.608	4.107
274.608	4.098
275.608	4.09
276.608	4.083
277.608	4.076
278.608	4.07
279.608	4.064
280.608	4.058
281.608	4.054
282.608	4.049
283.608	4.046
284.608	4.042
285.608	4.04
286.608	4.038
287.608	4.036
288.608	4.035
289.608	4.035
290.608	4.035
291.608	4.036
292.608	4.037
293.608	4.039
294.608	4.042
295.608	4.045
296.608	4.048
297.608	4.052
298.608	4.056
299.608	4.061
300.608	4.066
301.608	4.07
302.608	4.075
303.608	4.08
304.171	4.083
305.171	4.089
306.171	4.094
307.171	4.098
308.171	4.101
309.171	4.104
310.171	4.106
311.171	4.109
312.171	4.111
313.171	4.112
314.171	4.114
315.171	4.114
316.171	4.114
317.171	4.114
318.171	4.113
319.171	4.11
320.171	4.108
321.171	4.104
322.171	4.099
323.171	4.093
324.171	4.087
325.171	4.08
326.171	4.072
327.171	4.064
328.171	4.056
329.171	4.047
330.171	4.037
331.171	4.027
332.171	4.017
333.171	4.007
334.171	3.995
335.171	3.983
336.171	3.969
337.171	3.952
338.072	3.94
339.072	3.924
340.072	3.907
341.072	3.889
342.072	3.87
343.072	3.85
344.072	3.829
345.072	3.808
346.072	3.786
347.072	3.764
348.072	3.741
349.072	3.718
350.072	3.695
351.072	3.672
352.072	3.649
353.072	3.626
354.072	3.604
355.072	3.581
356.072	3.559
357.072	3.538
358.072	3.517
359.072	3.496
360.072	3.475
361.072	3.454
362.072	3.433
