Uv/Vis Spectrum: 2-[(ethoxycarbonyl)amino]isoquinolinium, inner salt
Formula: C12H12N2O2
CAS: 33357-73-2
Melting point: 131
Instrument: unknown
Origin: INSTITUTE OF ENERGY PROBLEMS OF CHEMICAL PHYSICS, RAS
Wavelength (nm)	Logarithm epsilon
217.412	4.429
218.6	4.445
219.802	4.457
221.016	4.466
222.244	4.473
223.486	4.476
224.741	4.475
226.011	4.471
227.296	4.46
228.595	4.442
229.769	4.423
231.096	4.397
232.439	4.364
233.798	4.325
235.172	4.283
236.563	4.241
237.971	4.203
239.395	4.172
240.704	4.152
242.162	4.13
243.637	4.111
245.13	4.094
246.641	4.077
248.171	4.062
249.721	4.046
251.29	4.031
252.878	4.016
254.487	4
256.117	3.983
257.767	3.966
259.439	3.949
261.133	3.932
262.899	3.921
264.639	3.912
266.401	3.907
268.187	3.904
269.998	3.903
271.833	3.901
273.693	3.898
275.578	3.891
277.49	3.877
279.428	3.855
281.394	3.819
283.171	3.772
285.19	3.71
287.238	3.65
289.315	3.599
291.423	3.565
293.562	3.552
295.732	3.556
297.935	3.567
298.227	3.568
299.946	3.584
301.685	3.6
303.445	3.624
305.225	3.647
307.026	3.679
308.848	3.719
311.068	3.762
313.506	3.806
315.983	3.846
318.499	3.882
321.055	3.912
323.653	3.937
326.293	3.954
328.977	3.962
331.705	3.96
334.478	3.945
336.608	3.927
339.465	3.883
342.371	3.83
345.326	3.775
348.334	3.721
351.394	3.665
351.454	3.663
354.57	3.604
357.741	3.543
360.969	3.478
364.256	3.407
367.604	3.327
371.013	3.229
374.487	3.098
378.026	2.918
