Uv/Vis Spectrum: 3,5-Dibromo-4-hydroxybenzoic acid
Formula: C7H4Br2O3
CAS: 3337-62-0
Melting point: 228
Instrument: Unicam SP 500
Origin: INSTITUTE OF ENERGY PROBLEMS OF CHEMICAL PHYSICS, RAS
Wavelength (nm)	Logarithm epsilon
243.2	3.412
244.72	3.409
246.07	3.395
247.25	3.375
248.44	3.358
249.45	3.337
250.29	3.31
250.97	3.283
251.81	3.259
252.49	3.232
253.33	3.205
253.84	3.178
254.34	3.151
254.85	3.124
255.36	3.093
255.86	3.066
256.24	3.038
256.71	3.008
257.11	2.98
257.55	2.947
257.89	2.917
258.22	2.886
258.56	2.856
258.88	2.828
259.08	2.804
259.41	2.767
259.74	2.737
260.08	2.706
260.42	2.676
260.69	2.644
260.92	2.615
261.26	2.584
261.6	2.554
261.93	2.523
262.27	2.49
262.61	2.462
262.95	2.431
263.31	2.403
263.79	2.37
264.3	2.343
264.81	2.313
265.14	2.282
265.82	2.255
266.33	2.228
267	2.201
267.68	2.174
268.35	2.146
269.03	2.119
269.7	2.092
270.54	2.065
271.56	2.041
272.74	2.026
274.26	2.024
275.78	2.031
276.96	2.051
277.97	2.072
278.98	2.092
280	2.116
280.84	2.143
281.51	2.17
282.19	2.197
282.86	2.224
283.71	2.252
284.38	2.279
285.23	2.306
286.07	2.333
286.75	2.36
287.42	2.387
288.1	2.414
288.94	2.442
289.78	2.469
290.63	2.496
291.3	2.523
291.98	2.55
292.82	2.577
293.67	2.604
294.48	2.635
295.18	2.659
296.03	2.686
296.7	2.713
297.47	2.743
298.19	2.771
298.9	2.794
299.69	2.824
300.37	2.852
300.92	2.873
301.77	2.9
302.61	2.927
303.45	2.951
304.3	2.978
305.31	3.001
306.32	3.025
307.34	3.049
308.35	3.073
309.36	3.093
310.37	3.117
311.55	3.137
312.57	3.158
313.75	3.178
314.93	3.198
316.28	3.215
317.46	3.232
318.81	3.249
320.16	3.263
321.51	3.28
323.03	3.29
324.55	3.297
326.07	3.297
327.59	3.297
329.11	3.297
330.63	3.293
332.14	3.283
333.66	3.273
335.01	3.256
336.36	3.239
337.71	3.222
338.9	3.202
339.91	3.178
341.09	3.158
341.93	3.13
342.78	3.107
343.62	3.083
344.46	3.056
345.31	3.032
345.99	3.003
346.66	2.978
347.33	2.951
347.84	2.923
348.58	2.895
349.19	2.869
349.7	2.842
350.2	2.815
350.54	2.791
350.88	2.757
351.38	2.73
351.72	2.699
352.23	2.672
352.73	2.645
353.19	2.617
353.57	2.59
353.92	2.557
354.25	2.526
354.76	2.499
355.1	2.469
355.43	2.438
355.94	2.408
356.28	2.377
356.78	2.35
357.12	2.319
357.42	2.296
357.8	2.262
358.3	2.235
358.64	2.204
359.15	2.177
359.65	2.146
359.99	2.116
360.33	2.085
360.77	2.057
361.2	2.028
361.68	2
362.18	1.97
362.69	1.943
363.16	1.915
363.7	1.885
364.21	1.858
364.72	1.831
365.36	1.803
366.07	1.777
366.71	1.751
367.42	1.722
368.25	1.696
369.1	1.671
370.29	1.651
371.47	1.631
372.82	1.614
374.17	1.597
