Uv/Vis Spectrum: Trifluoronitrosomethane
Formula: CF3NO
CAS: 334-99-6
Melting point: 121.5
Boiling point: 315
Instrument: Cary recording spectrophotometer
Origin: INSTITUTE OF ENERGY PROBLEMS OF CHEMICAL PHYSICS, RAS
Wavelength (nm)	Logarithm epsilon
506.51	0.082
508.87	0.104
511.64	0.128
514.15	0.153
516.72	0.176
519.24	0.203
521.65	0.228
524.11	0.253
526.6	0.278
529.16	0.305
531.7	0.325
534.25	0.348
536.51	0.367
539.05	0.391
541.59	0.414
543.86	0.434
546.13	0.458
548.63	0.487
550.66	0.51
552.92	0.538
554.9	0.565
556.88	0.594
558.86	0.617
560.84	0.639
563.11	0.66
565.37	0.68
567.38	0.697
569.33	0.722
571.03	0.742
572.73	0.762
574.31	0.785
575.84	0.805
577.26	0.826
578.96	0.842
580.94	0.858
582.63	0.873
584.62	0.886
586.31	0.902
588.29	0.916
589.99	0.932
591.41	0.947
593.11	0.962
594.52	0.978
596.22	0.991
597.63	1.006
599.05	1.021
600.18	1.035
601.6	1.047
602.73	1.06
604.14	1.073
605.56	1.084
606.97	1.095
608.67	1.104
610.65	1.111
612.63	1.118
614.61	1.127
616.31	1.136
618.01	1.144
619.42	1.154
621.12	1.162
622.54	1.171
623.95	1.179
625.37	1.188
626.78	1.196
628.48	1.203
630.46	1.21
632.44	1.217
634.71	1.222
636.69	1.227
638.67	1.233
640.65	1.239
642.35	1.246
644.33	1.252
646.03	1.259
647.44	1.266
648.86	1.273
650.27	1.281
651.97	1.287
653.67	1.292
655.36	1.298
657.06	1.305
659.04	1.31
661.02	1.316
663.01	1.32
664.99	1.325
666.97	1.33
668.95	1.334
671.21	1.339
673.48	1.342
676.02	1.342
678.29	1.339
680.83	1.339
683.38	1.339
685.93	1.34
688.19	1.344
690.74	1.344
693	1.34
694.7	1.334
696.12	1.327
697.53	1.32
698.66	1.313
699.8	1.306
700.93	1.298
701.78	1.29
702.63	1.282
703.76	1.274
704.89	1.266
706.02	1.257
706.87	1.248
708	1.239
709.13	1.231
709.98	1.222
711.4	1.213
712.53	1.203
713.66	1.194
714.79	1.184
716.21	1.176
717.34	1.165
718.64	1.157
720.17	1.146
721.31	1.136
722.44	1.124
723.28	1.111
724.42	1.099
725.27	1.085
726.11	1.071
726.96	1.057
727.81	1.042
728.66	1.026
729.51	1.01
730.08	0.993
730.92	0.976
731.77	0.957
732.34	0.938
732.91	0.919
733.75	0.898
734.6	0.876
735.17	0.853
736.02	0.828
736.87	0.803
737.72	0.775
738.57	0.746
739.41	0.714
740.26	0.68
741.11	0.644
741.96	0.608
743.09	0.57
743.94	0.522
745.07	0.474
746.49	0.42
747.9	0.359
749.6	0.298
751.02	0.215
753	0.14
754.7	0.033
