Uv/Vis Spectrum: Methane, diazo-
Formula: CH2N2
CAS: 334-88-3
Melting point: - 145
Boiling point: - 23
Instrument: Bausch and Lomb large litlrow spectrograph
Origin: INSTITUTE OF ENERGY PROBLEMS OF CHEMICAL PHYSICS, RAS
Wavelength (nm)	Logarithm epsilon
257.95	0.828
258.04	0.823
258.13	0.82
258.22	0.814
258.3	0.809
258.4	0.803
258.62	0.79
258.81	0.776
259.04	0.76
259.18	0.75
259.32	0.741
259.41	0.731
259.55	0.719
259.68	0.71
259.78	0.701
259.85	0.695
259.96	0.684
260.15	0.668
260.23	0.66
260.36	0.649
260.52	0.635
260.7	0.62
260.79	0.611
260.93	0.597
261.07	0.58
261.16	0.571
261.27	0.56
261.44	0.545
261.61	0.527
261.78	0.511
262	0.491
262.22	0.472
262.5	0.451
262.76	0.431
263	0.412
263.3	0.391
263.65	0.366
264.06	0.337
264.27	0.32
264.66	0.294
265.04	0.266
265.44	0.238
266	0.204
266.58	0.17
267.16	0.132
267.75	0.092
268.53	0.052
269.52	0.008
270.32	-0.041
270.88	-0.07
271.39	-0.097
271.96	-0.123
272.53	-0.152
273.77	-0.211
274.47	-0.243
275.19	-0.276
275.86	-0.304
276.64	-0.336
278.11	-0.405
