Uv/Vis Spectrum: 1-Amino-2,4,6-cyclohepta-trien-1-one
Formula: C7H7NO
CAS: 33504-43-7
Melting point: 105-107
Instrument: Unicam SP 700
Origin: INSTITUTE OF ENERGY PROBLEMS OF CHEMICAL PHYSICS, RAS
Wavelength (nm)	Logarithm epsilon
202.51	3.741
203.31	3.737
204.03	3.731
204.84	3.728
205.65	3.726
206.48	3.728
207.31	3.728
208.14	3.731
208.99	3.735
209.74	3.741
210.5	3.75
211.27	3.756
212.04	3.765
212.72	3.775
213.4	3.788
214.09	3.801
214.69	3.816
215.28	3.831
215.88	3.846
216.49	3.86
216.99	3.877
217.5	3.895
218.01	3.909
218.53	3.926
219.04	3.941
219.56	3.958
220.18	3.973
220.5	3.99
221.02	4.007
221.55	4.024
221.97	4.041
222.5	4.059
222.93	4.076
223.47	4.093
224.01	4.11
224.33	4.129
224.77	4.146
225.31	4.161
225.75	4.178
226.41	4.191
227.19	4.201
227.97	4.214
228.53	4.231
229.2	4.246
229.54	4.263
230.11	4.278
230.57	4.295
231.14	4.31
231.72	4.325
232.42	4.34
232.88	4.357
233.59	4.372
234.17	4.389
234.89	4.401
235.72	4.412
236.68	4.421
237.77	4.425
238.87	4.427
239.98	4.433
241.11	4.438
242.24	4.442
243.38	4.448
244.41	4.442
244.92	4.425
245.44	4.408
245.83	4.391
246.35	4.374
246.61	4.355
246.87	4.335
247.14	4.316
247.4	4.297
247.8	4.278
248.06	4.259
248.33	4.24
248.59	4.22
248.99	4.201
249.26	4.182
249.66	4.163
250.06	4.146
250.47	4.129
251.01	4.112
251.69	4.097
252.38	4.082
253.06	4.067
253.89	4.052
254.59	4.037
255.2	4.026
255.85	4.019
256.55	4.005
257.55	3.988
257.98	3.984
258.41	3.988
258.56	3.988
258.85	3.993
259.28	3.997
259.72	4.001
260.15	4.007
260.59	4.005
261.03	4.003
261.47	3.997
261.91	3.988
262.36	3.978
262.8	3.969
263.25	3.958
263.7	3.946
264.15	3.935
264.6	3.92
265.05	3.901
265.51	3.884
265.96	3.865
266.42	3.839
266.88	3.809
267.34	3.784
267.8	3.754
268.27	3.735
268.73	3.722
269.2	3.724
269.67	3.731
270.14	3.739
270.61	3.75
271.09	3.754
271.56	3.756
272.04	3.752
272.52	3.741
273	3.713
273.48	3.671
273.97	3.628
274.45	3.592
274.94	3.522
275.43	3.439
275.92	3.377
276.41	3.256
276.91	3.132
277.4	3.081
277.9	2.985
278.4	2.94
278.9	2.898
279.41	2.876
279.91	2.849
280.42	2.823
280.93	2.81
281.44	2.8
281.95	2.795
282.47	2.791
282.98	2.789
283.5	2.789
284.02	2.787
284.54	2.789
285.07	2.789
285.59	2.793
286.12	2.795
286.65	2.804
287.18	2.81
287.72	2.819
288.25	2.827
288.79	2.836
289.33	2.847
290.07	2.858
290.51	2.864
290.96	2.872
291.27	2.878
291.57	2.884
291.91	2.891
292.43	2.902
293.35	2.921
294.28	2.942
295.22	2.962
296.16	2.983
297.1	3.002
298.06	3.025
299.02	3.055
299.98	3.085
300.96	3.117
301.93	3.155
302.92	3.189
303.91	3.224
304.91	3.26
305.91	3.294
306.92	3.33
307.94	3.366
308.97	3.407
310	3.445
311.04	3.477
312.08	3.509
313.13	3.547
314.19	3.581
315.26	3.618
316.33	3.656
317.41	3.69
318.5	3.72
319.6	3.748
320.7	3.779
321.81	3.809
322.93	3.837
324.06	3.867
325.19	3.895
326.34	3.92
327.49	3.941
328.65	3.965
329.81	3.986
330.99	4.007
332.17	4.029
333.37	4.044
334.57	4.059
335.78	4.067
336.99	4.076
338.22	4.082
339.46	4.084
340.7	4.08
341.96	4.073
343.22	4.065
344.49	4.05
345.78	4.031
347.07	4.005
348.37	3.978
349.68	3.926
351.01	3.884
352.34	3.841
353.68	3.794
355.03	3.756
356.39	3.726
357.77	3.692
359.15	3.673
360.54	3.66
361.95	3.654
363.37	3.652
364.79	3.656
366.23	3.662
367.68	3.673
369.14	3.686
370.62	3.703
372.1	3.724
373.6	3.745
375.11	3.771
376.63	3.799
378.16	3.824
379.71	3.852
381.27	3.877
382.84	3.895
384.42	3.899
386.02	3.907
387.63	3.926
389.26	3.946
390.9	3.963
392.55	3.975
394.21	3.993
395.89	4.003
397.59	4.014
399.3	4.029
399.64	4.031
399.99	4.033
400.33	4.035
400.68	4.039
401.02	4.041
401.37	4.044
401.72	4.046
402.06	4.05
402.41	4.056
402.76	4.059
403.11	4.059
403.46	4.059
403.81	4.059
404.16	4.056
404.52	4.054
404.87	4.052
405.22	4.048
405.58	4.041
405.93	4.037
406.29	4.029
406.64	4.02
407	4.007
407.36	3.988
407.71	3.969
408.07	3.948
408.43	3.926
408.79	3.895
409.09	3.874
409.51	3.854
409.87	3.814
410.23	3.76
410.6	3.699
410.96	3.645
411.32	3.633
411.69	3.562
412.05	3.509
412.42	3.447
412.83	3.407
413.15	3.383
413.52	3.347
413.89	3.296
414.26	3.234
414.63	3.185
415	3.132
415.28	3.089
415.74	3.032
416.12	2.998
416.49	2.93
416.82	2.899
417.24	2.878
417.61	2.847
417.99	2.798
418.37	2.744
418.74	2.695
419.1	2.661
419.5	2.631
419.88	2.591
420.26	2.548
420.64	2.51
421.02	2.448
421.38	2.41
421.79	2.376
422.17	2.327
422.55	2.263
422.94	2.208
423.32	2.173
423.71	2.129
423.97	2.102
424.29	2.063
424.87	2.009
425.26	1.96
425.65	1.929
425.94	1.892
426.43	1.865
426.83	1.824
427.45	1.754
428.23	1.679
