Uv/Vis Spectrum: 2-Aminophenanthrene
Formula: C14H11N
CAS: 3366-65-2
Instrument: Spektromom 201
Origin: INSTITUTE OF ENERGY PROBLEMS OF CHEMICAL PHYSICS, RAS
Wavelength (nm)	Logarithm epsilon
205.44	4.249
206.29	4.273
207.48	4.29
209.01	4.293
210.37	4.276
211.56	4.256
212.92	4.239
214.28	4.228
215.81	4.225
217.34	4.228
218.87	4.232
220.4	4.232
221.93	4.222
223.29	4.208
224.31	4.188
225.16	4.164
226.18	4.143
226.86	4.116
228.05	4.096
229.24	4.075
230.77	4.072
232.3	4.075
233.83	4.082
235.19	4.092
236.72	4.099
238.08	4.109
239.27	4.126
240.46	4.143
241.65	4.16
242.67	4.181
243.35	4.208
244.2	4.232
245.05	4.259
245.9	4.283
246.58	4.31
247.6	4.334
248.11	4.361
248.96	4.385
249.64	4.412
250.49	4.439
251.17	4.466
251.68	4.493
252.53	4.521
253.04	4.548
253.89	4.575
254.74	4.602
255.59	4.629
256.78	4.65
257.97	4.667
259.16	4.684
260.52	4.694
262.05	4.697
263.58	4.697
264.94	4.68
265.96	4.66
266.81	4.636
267.66	4.612
268.51	4.589
269.53	4.565
270.38	4.541
271.4	4.517
272.59	4.497
273.44	4.473
274.46	4.453
275.48	4.432
276.33	4.408
277.17	4.385
278.02	4.361
278.87	4.334
279.55	4.307
280.4	4.283
281.08	4.256
281.93	4.228
282.61	4.201
283.29	4.174
283.97	4.147
284.48	4.12
285.33	4.096
286.18	4.069
287.2	4.048
288.56	4.035
290.09	4.031
291.62	4.031
293.15	4.031
294.51	4.021
295.87	4.004
297.06	3.984
297.57	3.956
298.08	3.929
298.59	3.902
299.1	3.875
299.78	3.848
300.29	3.82
301.14	3.793
301.99	3.766
303.01	3.746
304.03	3.725
305.22	3.708
306.58	3.695
307.94	3.684
309.47	3.678
310.83	3.664
312.36	3.661
313.72	3.647
315.08	3.63
316.27	3.61
317.46	3.593
318.48	3.572
319.5	3.548
320.52	3.525
321.37	3.501
322.22	3.477
323.07	3.453
323.92	3.426
324.6	3.399
325.45	3.372
325.96	3.344
326.81	3.317
327.49	3.29
328.17	3.263
329.02	3.236
329.53	3.208
330.38	3.181
330.89	3.154
331.74	3.127
332.42	3.1
333.27	3.072
333.78	3.045
334.63	3.018
335.48	2.991
336.84	2.974
338.37	2.971
339.9	2.971
341.43	2.971
342.96	2.971
344.49	2.971
346.02	2.967
347.38	2.954
348.91	2.95
350.44	2.947
351.97	2.95
353.5	2.957
354.86	2.971
356.39	2.971
357.92	2.974
359.45	2.971
360.98	2.967
362.51	2.957
363.87	2.947
365.4	2.937
366.76	2.92
368.12	2.903
369.48	2.886
370.67	2.865
371.86	2.845
372.88	2.821
373.9	2.797
374.92	2.777
375.6	2.75
376.62	2.726
377.3	2.699
378.15	2.675
378.83	2.648
379.68	2.624
380.36	2.597
381.21	2.569
381.72	2.539
382.4	2.512
382.91	2.484
383.42	2.457
384.1	2.43
384.61	2.403
385.12	2.376
385.63	2.348
385.97	2.318
386.48	2.291
386.99	2.26
387.5	2.233
387.84	2.202
388.18	2.172
388.69	2.144
389.03	2.114
389.37	2.083
389.88	2.053
390.22	2.022
390.73	1.991
391.07	1.961
391.58	1.934
391.75	1.903
392.26	1.876
392.43	1.845
392.77	1.815
393.11	1.784
393.45	1.754
393.79	1.723
394.3	1.696
394.64	1.665
394.98	1.635
395.49	1.604
395.83	1.573
396.34	1.546
396.68	1.516
397.19	1.485
397.53	1.454
397.87	1.424
398.21	1.393
398.72	1.366
399.06	1.335
399.4	1.305
399.74	1.274
400.42	1.247
400.76	1.216
401.27	1.186
401.61	1.155
401.95	1.125
402.29	1.094
402.63	1.063
403.14	1.036
403.48	1.006
403.99	0.978
404.5	0.951
405.01	0.924
405.35	0.893
405.86	0.866
406.54	0.839
407.05	0.812
407.56	0.785
408.24	0.757
408.75	0.73
409.6	0.703
410.28	0.676
410.96	0.649
411.81	0.621
412.66	0.594
413.51	0.57
414.36	0.547
415.38	0.523
416.23	0.499
417.25	0.479
418.27	0.458
419.29	0.435
420.48	0.414
421.84	0.397
423.03	0.38
424.39	0.363
425.75	0.35
427.11	0.333
428.47	0.319
429.83	0.305
431.35	0.299
432.71	0.285
434.07	0.271
435.43	0.258
436.96	0.251
438.32	0.237
439.85	0.231
441.38	0.22
442.74	0.21
444.27	0.203
445.8	0.193
447.33	0.186
448.86	0.176
450.39	0.169
451.92	0.166
453.45	0.156
454.98	0.152
456.51	0.152
458.04	0.152
459.57	0.146
461.1	0.146
462.63	0.146
464.16	0.146
465.69	0.142
467.22	0.142
468.75	0.142
470.28	0.139
471.81	0.135
473.34	0.129
474.87	0.125
476.4	0.122
477.93	0.115
479.46	0.108
480.99	0.108
482.52	0.098
484.05	0.091
485.58	0.091
486.94	0.078
488.47	0.074
