Uv/Vis Spectrum: 7,9-dihydro-1,7-dimethyl-1H-purine-2,6,8(3H)-trione
Formula: C7H8N4O3
CAS: 33868-03-0
Melting point: 398 (dec.)
Instrument: Cary 15
Origin: INSTITUTE OF ENERGY PROBLEMS OF CHEMICAL PHYSICS, RAS
Wavelength (nm)	Logarithm epsilon
216.141	4.407
217.141	4.426
218.141	4.451
219.141	4.477
220.141	4.501
221.141	4.521
222.141	4.536
223.141	4.545
224.141	4.548
225.141	4.547
226.141	4.542
227.141	4.535
228.141	4.526
229.141	4.515
230.141	4.502
231.12	4.488
232.12	4.462
233.12	4.429
234.12	4.39
235.12	4.348
236.12	4.303
237.12	4.256
238.12	4.208
239.12	4.157
240.12	4.106
241.12	4.054
242.12	4.002
243.12	3.951
244.12	3.902
245.12	3.857
246.12	3.82
246.887	3.805
247.887	3.775
248.887	3.752
249.887	3.734
250.887	3.72
251.887	3.708
252.887	3.697
253.887	3.685
254.887	3.673
255.887	3.66
256.887	3.647
257.887	3.633
258.887	3.62
259.887	3.607
260.887	3.595
261.887	3.586
262.887	3.58
263.887	3.578
264.887	3.58
265.887	3.587
266.887	3.598
267.887	3.614
268.887	3.633
269.887	3.656
270.695	3.674
271.695	3.699
272.695	3.726
273.695	3.753
274.695	3.781
275.695	3.809
276.695	3.837
277.695	3.864
278.695	3.891
279.695	3.918
280.695	3.943
281.695	3.968
282.695	3.993
283.695	4.017
284.695	4.04
285.695	4.063
286.695	4.084
287.695	4.105
288.695	4.125
289.695	4.143
290.695	4.16
291.695	4.174
292.695	4.185
293.695	4.192
294.661	4.196
295.661	4.197
296.661	4.193
297.661	4.186
298.661	4.177
299.661	4.165
300.661	4.152
301.661	4.136
302.661	4.117
303.661	4.094
304.661	4.066
305.661	4.032
306.661	3.991
307.661	3.941
308.661	3.882
309.586	3.813
310.586	3.749
311.586	3.661
312.586	3.573
313.586	3.498
314.586	3.432
315.586	3.359
316.689	3.24
