Uv/Vis Spectrum: 1a,10,11,11c-tetrahydro-9-methylbenz[7,8]aceanthryleno[9,10-b]oxirene
Formula: C21H16O
CAS: 3416-21-5
Melting point: 255-265(dec.)
Instrument: Cary 15
Origin: INSTITUTE OF ENERGY PROBLEMS OF CHEMICAL PHYSICS, RAS
Wavelength (nm)	Logarithm epsilon
248.472	4.527
248.721	4.532
248.981	4.535
249.217	4.539
249.552	4.538
249.886	4.527
249.964	4.521
250.264	4.503
250.564	4.489
250.864	4.478
251.164	4.471
251.464	4.466
251.764	4.463
252.064	4.461
252.364	4.462
252.664	4.463
252.964	4.465
253.264	4.467
253.564	4.47
253.864	4.472
254.164	4.476
254.464	4.479
254.764	4.483
255.064	4.488
255.364	4.493
255.664	4.5
255.964	4.508
256.264	4.518
256.564	4.53
256.864	4.545
256.959	4.551
257.459	4.583
257.959	4.613
258.459	4.64
258.959	4.664
259.459	4.683
259.809	4.697
260.465	4.695
260.84	4.683
261.202	4.67
261.496	4.657
261.683	4.64
261.871	4.627
262.371	4.594
262.871	4.571
263.371	4.555
263.871	4.546
264.371	4.543
264.871	4.545
265.371	4.552
265.871	4.561
266.371	4.575
266.871	4.592
267.371	4.614
268.039	4.661
268.51	4.685
268.982	4.716
269.453	4.737
269.925	4.757
270.396	4.771
270.868	4.781
271.16	4.78
271.365	4.775
271.649	4.76
271.933	4.743
272.067	4.726
272.567	4.626
273.067	4.528
273.567	4.434
273.973	4.356
274.473	4.288
274.973	4.227
275.473	4.175
275.973	4.132
276.473	4.098
276.973	4.072
277.473	4.055
277.973	4.043
278.473	4.036
278.953	4.024
279.509	4.015
280.158	4.013
280.899	4.009
281.806	4.004
282.752	4.004
283.4	4.004
283.973	4.007
284.473	4.007
284.973	4.008
285.473	4.011
285.973	4.016
286.473	4.022
287.106	4.026
287.832	4.036
288.37	4.043
288.87	4.05
289.37	4.058
289.87	4.068
290.37	4.079
290.87	4.089
291.37	4.099
291.87	4.108
292.37	4.116
292.87	4.122
293.37	4.126
293.87	4.13
294.37	4.131
294.87	4.131
295.37	4.13
295.87	4.128
296.24	4.125
296.74	4.122
297.24	4.121
297.74	4.123
298.24	4.126
298.74	4.131
299.24	4.136
299.74	4.142
300.24	4.148
300.74	4.155
301.24	4.162
301.74	4.17
302.24	4.179
302.708	4.185
303.208	4.2
303.708	4.212
304.208	4.223
304.708	4.229
305.208	4.232
305.708	4.231
306.208	4.226
306.708	4.219
307.208	4.209
