Uv/Vis Spectrum: dibenzo[e,g][1,2,3,4] tetrathiocin
Formula: C12H8S4
CAS: 34120-04-2
Melting point: 188.5-190
Instrument: SFD-2
Origin: INSTITUTE OF ENERGY PROBLEMS OF CHEMICAL PHYSICS, RAS
Wavelength (nm)	Logarithm epsilon
211.473	4.561
212.473	4.549
213.473	4.534
214.473	4.516
215.473	4.498
216.473	4.48
217.473	4.463
218.473	4.448
219.473	4.435
220.473	4.424
221.473	4.416
222.473	4.409
223.473	4.404
224.473	4.4
225.473	4.397
226.473	4.395
227.473	4.393
228.473	4.391
229.473	4.388
230.473	4.386
231.473	4.382
232.473	4.378
233.473	4.374
234.473	4.368
235.473	4.362
236.473	4.356
237.473	4.35
238.473	4.343
239.473	4.336
240.473	4.329
241.473	4.32
242.473	4.311
243.473	4.3
244.363	4.288
245.363	4.265
246.363	4.243
247.363	4.222
248.363	4.201
249.363	4.181
250.363	4.162
251.363	4.143
252.363	4.124
253.363	4.105
254.363	4.086
255.363	4.068
256.363	4.049
257.363	4.031
258.363	4.014
259.363	3.997
260.363	3.98
261.363	3.964
262.363	3.949
263.363	3.936
264.363	3.923
265.363	3.912
266.363	3.902
267.363	3.894
268.363	3.888
269.363	3.883
270.113	3.872
271.113	3.879
272.113	3.882
273.113	3.881
274.113	3.877
275.113	3.869
276.113	3.859
277.113	3.846
278.113	3.831
279.113	3.814
280.113	3.795
281.113	3.775
282.113	3.754
283.113	3.732
284.113	3.71
285.113	3.687
286.113	3.664
287.113	3.642
288.113	3.619
289.113	3.597
290.113	3.576
291.113	3.555
292.113	3.535
293.113	3.515
294.113	3.497
295.113	3.479
296.113	3.462
297.113	3.446
298.113	3.43
299.113	3.415
300.113	3.4
301.113	3.386
302.113	3.372
303.113	3.357
304.113	3.342
305.113	3.326
305.807	3.308
306.807	3.3
307.807	3.29
308.807	3.278
309.807	3.264
310.807	3.25
311.807	3.235
312.807	3.22
313.807	3.204
314.807	3.188
315.807	3.172
316.807	3.156
317.807	3.14
318.807	3.124
319.807	3.108
320.807	3.092
321.807	3.076
322.807	3.06
323.807	3.043
324.807	3.027
325.807	3.01
326.807	2.992
327.807	2.974
328.807	2.956
329.807	2.937
330.807	2.917
331.807	2.897
332.807	2.876
333.807	2.854
334.807	2.832
335.807	2.81
336.807	2.787
337.807	2.765
338.807	2.743
339.807	2.721
339.971	2.715
340.971	2.699
341.971	2.681
342.971	2.66
343.971	2.638
344.971	2.614
345.971	2.59
346.971	2.566
347.971	2.541
348.971	2.517
349.971	2.493
350.971	2.469
351.971	2.446
352.971	2.424
353.971	2.403
354.971	2.382
355.971	2.362
356.971	2.343
357.971	2.324
358.971	2.306
359.971	2.289
360.971	2.273
361.971	2.256
362.971	2.24
363.971	2.225
364.971	2.209
365.971	2.193
366.971	2.178
367.971	2.162
368.971	2.146
369.971	2.13
370.971	2.114
371.971	2.097
372.971	2.081
373.971	2.064
