Uv/Vis Spectrum: 1-Chloropyrene
Formula: C16H9Cl
CAS: 34244-14-9
Instrument: unknown
Origin: INSTITUTE OF ENERGY PROBLEMS OF CHEMICAL PHYSICS, RAS
Wavelength (nm)	Logarithm epsilon
229.82	4.519
230.65	4.552
232.14	4.564
233.64	4.568
234.97	4.58
235.8	4.609
236.3	4.642
236.97	4.675
237.47	4.712
237.97	4.749
238.47	4.786
238.96	4.823
239.46	4.86
239.96	4.897
240.63	4.93
241.13	4.963
241.67	4.976
242.16	4.956
242.65	4.915
243.12	4.86
243.29	4.844
243.79	4.753
244.45	4.621
245.12	4.519
245.79	4.412
246.45	4.313
247.12	4.169
247.78	3.963
248.45	3.914
249.11	3.889
249.78	3.864
250.44	3.84
251.11	3.827
251.77	3.827
252.44	3.84
253.11	3.869
253.77	3.926
254.44	3.943
255.1	3.947
255.77	3.943
256.43	3.934
257.1	3.922
257.76	3.926
258.43	3.943
259.14	3.972
259.67	4.003
260.45	4.06
261.09	4.103
261.76	4.152
262.42	4.198
263.09	4.251
263.75	4.317
264.42	4.362
265.08	4.395
265.75	4.408
266.41	4.379
267.08	4.317
267.75	4.28
268.41	4.276
269.08	4.28
269.74	4.301
270.41	4.35
271.07	4.412
271.74	4.478
272.4	4.543
273.07	4.613
273.73	4.679
274.4	4.724
275.06	4.745
275.73	4.745
276.4	4.733
277.06	4.663
277.73	4.564
278.39	4.371
279.06	4.202
279.72	4.074
280.39	3.996
280.78	3.965
281.41	3.924
282.38	3.885
283.05	3.852
283.72	3.815
284.38	3.778
285.05	3.753
285.71	3.725
286.38	3.7
287.04	3.679
287.71	3.659
288.37	3.642
289.04	3.634
289.7	3.626
290.37	3.634
291.04	3.638
291.7	3.642
292.37	3.659
293.03	3.675
293.7	3.7
294.36	3.716
295.03	3.737
295.69	3.766
296.36	3.778
297.02	3.799
298.36	3.84
299.69	3.864
300.35	3.877
301.02	3.873
301.49	3.861
302.35	3.832
302.9	3.817
303.68	3.803
304.34	3.799
305.01	3.799
305.85	3.804
306.34	3.815
307.01	3.836
307.67	3.856
308.32	3.886
309.02	3.922
309.67	3.955
310.33	3.992
311	4.029
311.66	4.062
312.33	4.091
312.99	4.095
313.66	4.074
314.33	4.05
315.66	4.021
316.32	4.025
316.99	4.033
317.65	4.041
318.32	4.058
318.98	4.074
319.65	4.091
320.31	4.115
320.98	4.136
321.65	4.161
322.31	4.19
322.98	4.218
323.64	4.251
324.31	4.288
324.97	4.325
325.64	4.371
326.3	4.432
326.96	4.488
327.63	4.523
328.3	4.535
328.97	4.531
329.28	4.511
329.42	4.473
329.63	4.403
329.91	4.344
330.3	4.255
330.96	4.185
331.63	4.161
332.29	4.165
332.96	4.181
333.62	4.198
334.29	4.218
334.95	4.239
335.62	4.264
336.42	4.291
336.95	4.313
337.62	4.346
338.25	4.374
338.95	4.408
339.61	4.44
340.28	4.465
340.94	4.51
341.26	4.54
341.54	4.574
341.87	4.61
342.09	4.64
342.26	4.664
342.35	4.682
342.44	4.696
342.54	4.713
342.72	4.73
343	4.745
343.27	4.753
343.58	4.755
343.94	4.753
344.27	4.745
344.6	4.737
344.94	4.724
345.27	4.671
345.6	4.605
345.93	4.56
346.27	4.502
346.6	4.461
346.93	4.383
347.26	4.329
347.6	4.259
347.93	4.206
348.26	4.181
348.6	4.161
348.93	4.144
349.22	4.139
349.55	4.133
349.93	4.128
350.35	4.124
350.92	4.12
351.26	4.115
351.59	4.107
351.92	4.103
352.26	4.099
352.59	4.091
352.92	4.083
353.26	4.073
353.54	4.064
353.92	4.054
354.25	4.041
354.58	4.033
354.92	4.021
355.28	4.004
355.58	3.984
355.88	3.968
356.25	3.947
356.58	3.926
356.91	3.881
357.25	3.79
357.58	3.729
357.98	3.636
358.23	3.594
358.58	3.548
358.91	3.49
359.24	3.449
359.58	3.412
359.91	3.387
360.24	3.354
360.57	3.309
360.91	3.272
361.24	3.243
361.57	3.214
361.9	3.19
362.24	3.161
362.57	3.136
362.9	3.116
363.24	3.091
363.57	3.075
363.9	3.054
364.26	3.033
364.57	3.013
364.9	3.001
365.23	2.98
365.55	2.967
365.87	2.947
366.15	2.931
366.56	2.902
366.9	2.881
367.23	2.865
367.56	2.84
367.89	2.824
368.23	2.799
368.56	2.778
368.89	2.762
369.22	2.725
369.56	2.7
369.89	2.68
370.22	2.651
370.56	2.626
370.89	2.593
371.22	2.564
371.55	2.523
371.89	2.49
372.22	2.466
372.55	2.449
372.88	2.433
373.22	2.429
373.55	2.429
373.88	2.445
374.22	2.499
374.55	2.61
374.88	2.713
375.21	2.778
375.55	2.857
375.88	2.889
376.21	2.906
376.54	2.91
376.88	2.906
377.21	2.861
377.54	2.795
377.88	2.737
378.21	2.68
378.54	2.622
378.87	2.56
379.21	2.474
379.42	2.455
379.87	2.437
380.2	2.425
380.54	2.437
380.87	2.462
381.15	2.49
381.54	2.523
381.87	2.548
382.2	2.577
382.53	2.601
382.87	2.61
383.2	2.614
383.53	2.614
383.86	2.61
384.2	2.601
384.53	2.581
384.75	2.544
384.79	2.49
384.86	2.425
384.9	2.358
385.02	2.298
385.19	2.231
385.53	2.112
385.86	2.025
386.19	1.919
386.53	1.799
