Uv/Vis Spectrum: Pyrimidine, 4-methyl-
Formula: C5H6N2
CAS: 3438-46-8
Melting point: 32
Boiling point: 142
Instrument: n.i.g.
Origin: INSTITUTE OF ENERGY PROBLEMS OF CHEMICAL PHYSICS, RAS
Wavelength (nm)	Logarithm epsilon
208.15	3.382
208.4	3.366
208.67	3.349
209.06	3.327
209.42	3.306
209.92	3.278
210.49	3.242
211.26	3.195
212.02	3.161
213.73	3.106
215.45	3.072
217.17	3.051
218.88	3.037
220.6	3.037
222.32	3.058
224.03	3.127
225.75	3.196
227.47	3.265
229.08	3.332
230.9	3.402
232.59	3.456
234.33	3.506
236.71	3.575
239.48	3.636
241.2	3.657
242.93	3.677
244.64	3.685
246.21	3.668
248.02	3.629
249.79	3.588
251.35	3.538
253.22	3.456
254.94	3.34
256.65	3.203
258.37	3.058
260.09	2.914
261.8	2.783
263.52	2.693
265.24	2.597
266.95	2.528
268.67	2.459
270.34	2.406
272.1	2.342
273.8	2.274
275.54	2.191
277.25	2.122
279.02	2.04
280.69	1.977
282.4	1.915
284.12	1.84
285.89	1.764
287.55	1.702
289.27	1.626
290.99	1.537
292.7	1.454
294.42	1.372
