Uv/Vis Spectrum: Benzene, chloropentafluoro-
Formula: C6ClF5
CAS: 344-07-0
Boiling point: 117.0
Instrument: SFD-2
Origin: INSTITUTE OF ENERGY PROBLEMS OF CHEMICAL PHYSICS, RAS
Wavelength (nm)	Logarithm epsilon
220.68	3.017
221.19	3.017
221.69	3.017
222.2	3.017
223.71	3.017
224.22	3.017
224.72	3.017
225.22	3.017
225.73	3.017
226.74	3.012
228.25	3.027
229.76	3.037
231.28	3.047
232.79	3.052
234.31	3.057
235.82	3.047
237.33	3.037
238.85	2.987
240.36	2.938
241.87	2.888
243.39	2.793
244.9	2.714
246.41	2.659
247.93	2.609
249.44	2.569
250.95	2.534
252.47	2.519
253.98	2.51
255.49	2.51
257.01	2.51
258.52	2.524
260.03	2.534
261.55	2.549
263.06	2.554
264.57	2.554
266.09	2.554
267.6	2.544
269.12	2.534
270.63	2.51
272.14	2.46
273.66	2.37
275.17	2.241
276.68	2.146
278.2	2.042
279.71	1.862
281.22	1.768
282.74	1.688
284.25	1.599
