Uv/Vis Spectrum: p-Fluorobenzophenone
Formula: C13H9FO
CAS: 345-83-5
Melting point: 43-45
Instrument: Unicam SP 700
Origin: INSTITUTE OF ENERGY PROBLEMS OF CHEMICAL PHYSICS, RAS
Wavelength (nm)	Logarithm epsilon
209.42	4.26
209.82	4.241
210.43	4.216
211.44	4.175
212.45	4.141
213.46	4.1
214.47	4.056
215.48	4.012
216.48	3.971
217.49	3.93
218.5	3.889
219.51	3.858
220.52	3.827
221.53	3.807
222.54	3.787
223.55	3.773
224.56	3.763
225.57	3.759
226.58	3.763
227.59	3.766
228.6	3.78
229.6	3.793
230.61	3.817
231.62	3.848
232.63	3.882
233.64	3.92
234.65	3.947
235.66	3.971
236.67	4.001
237.68	4.039
238.69	4.073
239.7	4.117
240.71	4.165
241.72	4.199
242.72	4.223
243.73	4.247
244.74	4.257
245.75	4.264
246.76	4.267
247.77	4.264
248.78	4.26
249.79	4.25
250.8	4.24
251.81	4.219
252.82	4.206
253.83	4.185
254.84	4.165
255.85	4.141
256.85	4.117
257.86	4.087
258.87	4.052
259.88	4.018
260.89	3.977
261.9	3.94
262.91	3.896
263.92	3.858
264.93	3.814
265.94	3.773
266.95	3.729
267.96	3.681
268.97	3.633
269.97	3.592
270.98	3.548
271.99	3.5
273	3.453
274.17	3.407
275.19	3.362
276.03	3.333
277.04	3.292
278.05	3.241
279.06	3.19
280.07	3.139
281.08	3.091
282.09	3.033
283.1	2.979
284.1	2.914
285.11	2.863
286.12	2.808
287.13	2.747
288.14	2.682
289.15	2.624
290.16	2.56
291.17	2.491
292.18	2.433
293.19	2.372
294.2	2.304
295.21	2.249
296.22	2.212
297.22	2.178
298.23	2.147
299.01	2.123
299.83	2.104
300.96	2.085
301.78	2.075
302.81	2.069
304.25	2.067
305.38	2.069
306.31	2.072
307.32	2.079
308.26	2.085
309.34	2.093
310.31	2.101
311.35	2.11
312.37	2.116
313.37	2.123
314.32	2.131
315.39	2.137
316.4	2.144
317.41	2.147
318.43	2.149
319.35	2.153
320.38	2.157
321.41	2.161
322.43	2.163
323.47	2.164
324.18	2.169
325.21	2.17
326.34	2.172
327.37	2.172
328.5	2.172
329.52	2.171
330.51	2.17
331.54	2.168
332.55	2.168
333.56	2.164
334.57	2.164
335.58	2.161
336.57	2.155
337.59	2.147
338.6	2.144
339.61	2.137
340.62	2.13
341.4	2.123
342.64	2.116
343.55	2.109
344.66	2.103
345.67	2.096
346.68	2.086
347.69	2.076
348.7	2.065
349.71	2.058
350.85	2.05
352.18	2.036
353.72	2.02
355.09	2.004
356.22	1.987
357.44	1.966
358.96	1.936
360.39	1.905
362.02	1.871
363.14	1.847
364.51	1.82
365.52	1.796
366.53	1.772
367.37	1.748
368.21	1.721
