Uv/Vis Spectrum: trans-8,9-dihydroxy-8,9-dihydrobenzo[a]anthracene
Formula: C18H14O2
CAS: 34501-24-1
Melting point: 168-170
Instrument: Cary 14
Origin: INSTITUTE OF ENERGY PROBLEMS OF CHEMICAL PHYSICS, RAS
Wavelength (nm)	Logarithm epsilon
210.698	4.365
211.948	4.339
213.198	4.31
214.448	4.285
215.698	4.265
216.948	4.253
218.198	4.249
219.448	4.251
220.698	4.258
221.948	4.265
223.198	4.266
224.42	4.259
225.67	4.238
226.92	4.242
228.17	4.252
229.42	4.258
230.67	4.254
231.92	4.238
233.17	4.213
234.613	4.19
235.863	4.178
237.113	4.185
238.363	4.203
239.613	4.228
240.863	4.257
242.113	4.287
243.363	4.319
244.613	4.352
245.863	4.386
247.113	4.422
248.363	4.462
249.613	4.504
250.863	4.549
252.113	4.597
253.363	4.645
254.613	4.689
255.863	4.726
257.113	4.749
258.14	4.747
259.771	4.736
261.225	4.759
262.475	4.79
263.725	4.821
264.975	4.843
266.225	4.848
267.475	4.832
268.837	4.786
270.291	4.691
271.467	4.62
272.668	4.533
273.918	4.48
275.168	4.431
276.418	4.385
277.668	4.341
278.918	4.301
280.168	4.268
281.418	4.244
282.668	4.231
283.918	4.229
285.168	4.237
286.418	4.25
287.668	4.259
288.918	4.249
290.089	4.228
291.339	4.196
292.589	4.181
293.618	4.167
294.993	4.175
296.378	4.149
297.368	4.119
298.618	4.11
299.868	4.128
301.263	4.159
302.635	4.19
303.689	4.227
304.939	4.288
306.189	4.344
307.732	4.362
308.689	4.328
309.496	4.276
310.746	4.216
311.996	4.18
313.246	4.166
314.496	4.184
315.746	4.232
316.996	4.297
318.246	4.36
319.496	4.4
320.746	4.4
321.996	4.351
323.246	4.257
324.003	4.185
325.253	4.095
326.503	3.982
327.753	3.845
329.003	3.693
330.253	3.545
331.503	3.419
332.753	3.328
334.003	3.273
335.202	3.215
336.744	3.152
