Uv/Vis Spectrum: Naphthalene, 2,7-dimethoxy-
Formula: C12H12O2
CAS: 3469-26-9
Melting point: 138
Instrument: Beckman spectophotometer
Origin: INSTITUTE OF ENERGY PROBLEMS OF CHEMICAL PHYSICS, RAS
Wavelength (nm)	Logarithm epsilon
222.502	4.50429
223.365	4.53428
224.225	4.56452
225.084	4.59472
225.944	4.6246
226.145	4.62499
226.421	4.63353
226.706	4.64191
226.807	4.65388
226.994	4.65021
227.935	4.67769
228.554	4.69724
229.181	4.71671
229.813	4.73601
230.465	4.75372
231.076	4.76683
231.792	4.77758
232.658	4.78717
233.162	4.78684
233.224	4.79516
233.412	4.79112
233.598	4.79118
233.675	4.78634
233.787	4.79124
233.985	4.79129
234.192	4.78577
235.932	4.75723
236.034	4.74206
236.138	4.75357
236.247	4.72609
236.398	4.73428
236.666	4.71498
236.754	4.69563
236.939	4.69569
237.538	4.65936
237.667	4.66013
237.796	4.66082
237.925	4.66134
238.004	4.63044
238.474	4.60152
238.703	4.60661
238.952	4.5726
238.952	4.5726
238.97	4.58361
239.645	4.53444
239.645	4.53444
240.08	4.50437
240.437	4.49278
240.522	4.47423
240.78	4.47086
240.965	4.44989
240.969	4.44393
241.78	4.37264
241.966	4.39579
241.971	4.38946
241.975	4.38313
241.98	4.3768
241.98	4.3768
242.109	4.37683
242.187	4.34705
242.239	4.37687
242.368	4.37691
242.368	4.37691
242.594	4.32147
242.634	4.35006
242.908	4.32304
243.001	4.29588
243.186	4.29594
243.605	4.25359
243.605	4.25359
243.625	4.2588
243.654	4.26393
243.686	4.26889
243.686	4.26889
243.735	4.25363
243.782	4.26518
243.864	4.25367
243.882	4.26139
243.99	4.25743
243.993	4.25371
243.993	4.25371
244.36	4.21242
244.57	4.19394
244.597	4.21142
244.733	4.2025
244.804	4.18242
244.869	4.19351
245.006	4.18434
245.404	4.14609
245.41	4.13826
245.525	4.12885
245.74	4.11713
245.98	4.09424
246.075	4.09599
246.417	4.07486
246.635	4.05555
247.238	4.01512
247.244	4.0073
247.333	3.98514
247.467	3.99086
247.752	3.9555
247.825	3.96958
248.266	3.92489
248.448	3.92868
248.672	3.87658
248.877	3.87292
248.938	3.86772
249.001	3.86252
249.074	3.85733
249.081	3.84791
249.49	3.81907
249.9	3.79014
250.405	3.75713
250.467	3.74553
250.861	3.71822
251.533	3.68674
251.924	3.65178
251.924	3.65178
251.927	3.65943
252.131	3.62278
252.313	3.62656
252.595	3.59534
252.745	3.59911
253.064	3.56781
253.186	3.57158
253.541	3.54012
253.631	3.54388
254.32	3.5113
254.939	3.48865
255.304	3.48067
255.702	3.4701
255.884	3.47116
256.469	3.46165
256.859	3.45208
257.062	3.45214
257.247	3.4522
257.375	3.45297
257.504	3.45365
257.633	3.45418
257.639	3.44673
258.321	3.44811
258.618	3.44771
258.781	3.4508
258.786	3.44521
258.839	3.44895
258.901	3.44711
258.97	3.44527
259.173	3.44533
259.36	3.44315
259.545	3.44321
259.735	3.44326
259.933	3.44332
260.058	3.44884
260.948	3.45219
261.845	3.45545
263.462	3.46786
264.531	3.47191
264.647	3.47195
264.772	3.47199
264.898	3.47463
264.9	3.47202
265.285	3.47587
265.471	3.47592
265.66	3.47598
265.858	3.47604
266.334	3.4814
266.428	3.48031
266.557	3.48035
266.686	3.48039
266.816	3.48043
267.771	3.48817
269.298	3.49645
270.44	3.5009
270.854	3.50424
272.035	3.50138
272.385	3.50697
273.637	3.50187
274.094	3.50759
274.094	3.50759
275.244	3.50235
275.3	3.50263
275.635	3.49837
275.7	3.50024
277.741	3.49901
278.955	3.48856
280.178	3.47803
281.404	3.46733
283.151	3.45444
284.061	3.43863
285.015	3.42539
286.829	3.4034
288.196	3.37847
289.487	3.35763
290.777	3.33678
292.068	3.31593
293.82	3.29523
295.145	3.277
296.471	3.25877
297.796	3.24054
300.01	3.21997
300.014	3.21476
300.018	3.20954
300.022	3.20433
300.022	3.20433
301.229	3.18219
302.488	3.15791
303.735	3.13205
305.085	3.10564
305.271	3.10383
305.462	3.10202
305.661	3.10022
305.865	3.10028
306.232	3.10576
306.669	3.11739
307.55	3.14513
307.915	3.17617
308.097	3.17995
308.152	3.18777
308.215	3.19552
308.283	3.2031
308.363	3.21723
308.457	3.21694
308.51	3.22143
308.567	3.22592
308.599	3.2343
308.632	3.23041
308.827	3.24201
309.373	3.27683
310.453	3.27721
310.961	3.26732
311.507	3.24096
312.31	3.20432
312.888	3.19667
313.628	3.17962
314.285	3.16581
314.405	3.17013
314.844	3.15106
315.029	3.15112
315.059	3.16037
315.158	3.15116
315.287	3.1512
315.411	3.15906
315.411	3.15906
315.413	3.15645
315.415	3.15384
315.417	3.15124
315.417	3.15124
317.152	3.12866
317.99	3.11923
318.829	3.10979
319.667	3.10036
319.871	3.10042
320.163	3.1024
320.409	3.10702
320.818	3.11822
321.165	3.14925
321.356	3.16458
321.359	3.16084
321.362	3.15702
321.365	3.15304
321.4	3.18023
321.636	3.21113
321.872	3.24186
321.886	3.22287
321.889	3.21903
321.892	3.21503
321.895	3.21095
322.24	3.26917
322.444	3.2926
322.648	3.31585
322.783	3.30809
322.8	3.31851
322.824	3.32885
322.853	3.33903
322.853	3.33903
323.498	3.36605
323.678	3.38026
323.865	3.39448
324.057	3.40869
324.057	3.40869
324.239	3.41285
324.396	3.40767
324.443	3.4161
324.587	3.42107
324.743	3.40656
324.798	3.43202
324.798	3.43202
324.927	3.43206
325.056	3.4321
325.095	3.40528
325.095	3.40528
325.186	3.43214
325.186	3.43214
325.251	3.41947
325.321	3.40673
325.386	3.36786
325.399	3.39383
325.679	3.33034
325.821	3.34738
325.976	3.29275
326.029	3.31799
326.24	3.28853
326.278	3.25512
326.46	3.2589
326.695	3.2165
326.771	3.18958
326.851	3.1625
326.883	3.21245
326.94	3.13535
326.958	3.18677
327.037	3.16108
327.125	3.1354
327.362	3.08928
327.438	3.06236
327.519	3.03529
327.55	3.08523
327.608	3.00813
327.625	3.05955
327.705	3.03386
327.792	3.00818
328.178	2.93834
328.214	2.96211
328.247	2.91633
328.421	2.95808
328.481	2.87724
328.497	2.93126
328.577	2.90436
328.666	2.8773
328.888	2.82707
329.042	2.82124
329.159	2.79925
329.31	2.78062
329.316	2.77306
329.322	2.76534
329.327	2.75753
329.339	2.74226
329.514	2.69023
329.571	2.70358
329.578	2.66823
329.758	2.69991
329.819	2.6187
329.834	2.67421
329.913	2.64843
330.001	2.62249
330.005	2.52486
330.021	2.54675
330.041	2.56847
330.247	2.56481
330.319	2.54359
330.395	2.52238
