Uv/Vis Spectrum: 2-phenyl-6-quinazolinol
Formula: C14H10N2O
CAS: 34637-68-8
Melting point: 235-236
Instrument: Specord UV-Vis
Origin: INSTITUTE OF ENERGY PROBLEMS OF CHEMICAL PHYSICS, RAS
Wavelength (nm)	Logarithm epsilon
201.71	4.491
202.71	4.509
203.71	4.518
204.71	4.524
205.71	4.529
206.71	4.532
207.71	4.536
208.71	4.539
209.71	4.539
210.71	4.537
211.71	4.531
212.71	4.521
213.71	4.507
214.71	4.49
215.71	4.471
216.71	4.449
217.71	4.427
218.71	4.403
219.71	4.377
220.71	4.347
221.346	4.323
221.867	4.297
222.867	4.252
223.867	4.206
224.867	4.16
225.867	4.116
226.867	4.076
227.867	4.039
228.867	4.007
229.867	3.979
230.867	3.956
231.867	3.938
232.867	3.923
232.897	3.923
233.897	3.912
234.897	3.906
235.897	3.902
236.897	3.901
237.897	3.901
238.897	3.902
239.897	3.903
240.897	3.905
241.897	3.908
242.897	3.91
243.897	3.913
244.897	3.917
245.897	3.92
246.897	3.925
247.897	3.93
248.897	3.935
249.897	3.94
250.897	3.944
250.952	3.945
251.952	3.949
252.952	3.953
253.952	3.958
254.952	3.962
255.952	3.966
256.952	3.97
257.952	3.973
258.952	3.974
259.952	3.975
260.952	3.975
261.952	3.974
262.952	3.972
263.952	3.97
264.952	3.967
265.952	3.964
266.952	3.96
267.972	3.958
268.972	3.953
269.972	3.95
270.972	3.947
271.972	3.944
272.972	3.941
273.972	3.937
274.972	3.933
275.972	3.929
276.972	3.925
277.972	3.92
278.972	3.916
279.972	3.911
280.972	3.907
281.972	3.904
282.972	3.901
283.972	3.898
284.972	3.897
285.972	3.896
286.972	3.897
287.972	3.899
288.972	3.901
289.972	3.905
290.972	3.91
291.972	3.915
292.972	3.921
293.972	3.927
294.972	3.934
295.972	3.941
297.029	3.949
297.973	3.955
298.973	3.964
299.973	3.972
300.973	3.98
301.973	3.987
302.973	3.993
303.973	3.999
304.973	4.005
305.973	4.01
306.973	4.016
307.973	4.021
308.973	4.026
309.973	4.031
310.973	4.035
311.973	4.04
312.973	4.044
313.973	4.047
314.973	4.05
315.973	4.053
316.973	4.055
317.973	4.056
318.973	4.057
319.973	4.057
320.973	4.056
321.973	4.054
322.973	4.052
323.973	4.048
324.973	4.044
325.973	4.038
326.973	4.031
327.973	4.024
328.973	4.015
329.973	4.005
330.973	3.995
331.973	3.983
332.973	3.97
333.973	3.957
334.973	3.942
335.973	3.926
336.973	3.91
337.973	3.893
338.973	3.875
339.973	3.857
340.973	3.838
341.973	3.818
342.973	3.798
343.973	3.778
344.973	3.757
345.973	3.736
346.973	3.714
347.973	3.693
348.973	3.67
349.973	3.648
350.973	3.625
351.973	3.602
352.973	3.578
353.973	3.553
354.973	3.528
355.973	3.502
356.973	3.475
357.973	3.446
358.973	3.415
359.973	3.383
360.973	3.347
361.973	3.309
362.973	3.268
363.973	3.222
364.744	3.193
