Uv/Vis Spectrum: 3,4-Benzocarbazole
Formula: C16H11N
CAS: 34777-33-8
Melting point: 135
Instrument: Unicam SP 500
Origin: INSTITUTE OF ENERGY PROBLEMS OF CHEMICAL PHYSICS, RAS
Wavelength (nm)	Logarithm epsilon
220.75	4.433
221.03	4.433
221.31	4.431
221.58	4.428
221.86	4.425
222.13	4.425
222.41	4.423
222.69	4.42
222.96	4.41
225.17	4.389
226.27	4.368
228.48	4.321
229.58	4.31
230.68	4.336
231.79	4.386
232.89	4.394
233.99	4.404
236.2	4.431
237.3	4.449
238.4	4.475
239.51	4.48
240.61	4.475
241.71	4.465
242.82	4.423
243.92	4.41
245.02	4.373
246.12	4.352
249.43	4.331
250.54	4.323
251.64	4.313
253.85	4.281
254.95	4.273
256.05	4.281
258.26	4.305
259.36	4.318
260.46	4.323
263.77	4.341
264.88	4.344
265.98	4.355
268.19	4.389
269.29	4.407
271.49	4.454
272.6	4.47
273.7	4.496
274.8	4.504
275.91	4.507
278.11	4.504
279.22	4.499
280.32	4.488
281.42	4.478
282.53	4.425
282.8	4.376
283.08	4.376
283.35	4.376
283.63	4.36
283.9	4.331
284.18	4.313
284.46	4.305
284.73	4.294
285.01	4.286
285.28	4.281
285.56	4.279
285.83	4.273
286.11	4.271
286.39	4.266
286.66	4.26
286.94	4.255
287.21	4.231
287.49	4.224
287.76	4.218
288.04	4.205
288.32	4.187
288.59	4.155
288.87	4.148
289.14	4.059
289.42	4.019
289.7	4.017
289.97	3.933
290.25	3.92
290.52	3.909
290.8	3.883
291.07	3.883
291.35	3.88
291.63	3.857
291.9	3.857
292.18	3.857
292.45	3.857
292.73	3.846
293	3.844
293.83	3.817
294.11	3.817
294.38	3.817
294.66	3.815
294.93	3.81
295.21	3.807
295.49	3.799
295.76	3.794
296.04	3.783
296.31	3.744
296.59	3.744
296.87	3.744
297.14	3.741
297.42	3.736
297.69	3.723
297.97	3.715
298.24	3.702
298.52	3.679
298.8	3.676
299.07	3.673
299.35	3.663
299.62	3.655
299.9	3.65
300.17	3.645
300.45	3.637
300.73	3.631
301.28	3.61
301.55	3.613
301.83	3.613
302.1	3.61
302.38	3.603
302.66	3.597
302.93	3.595
303.21	3.592
303.48	3.59
303.76	3.59
304.03	3.59
304.31	3.59
304.59	3.59
304.86	3.59
307.07	3.603
307.34	3.605
307.62	3.608
307.9	3.61
308.17	3.613
308.45	3.616
308.72	3.621
309	3.624
309.27	3.626
309.55	3.629
309.83	3.631
310.1	3.634
310.38	3.631
310.93	3.655
311.2	3.66
311.48	3.663
311.76	3.668
312.03	3.673
312.31	3.676
312.58	3.681
312.86	3.686
313.13	3.689
313.41	3.689
314.24	3.718
314.51	3.723
314.79	3.728
315.07	3.734
315.34	3.736
315.62	3.739
315.89	3.741
316.17	3.739
316.44	3.741
316.72	3.744
317	3.749
318.37	3.773
318.65	3.773
318.93	3.776
319.2	3.781
319.48	3.786
319.75	3.789
320.03	3.791
320.3	3.797
320.58	3.799
320.86	3.804
321.13	3.807
321.41	3.81
321.68	3.812
323.89	3.841
324.17	3.844
324.44	3.846
324.72	3.849
324.99	3.854
325.27	3.857
325.54	3.859
325.82	3.862
326.1	3.865
326.37	3.87
326.65	3.872
326.92	3.875
328.58	3.893
328.85	3.893
329.13	3.896
329.4	3.899
329.68	3.901
329.96	3.907
330.23	3.907
330.51	3.909
330.78	3.912
331.06	3.914
331.34	3.92
332.71	3.933
332.99	3.933
333.27	3.935
333.54	3.938
333.82	3.941
334.09	3.941
334.37	3.941
334.64	3.941
334.92	3.941
335.2	3.941
335.47	3.948
335.75	3.948
336.02	3.948
336.3	3.948
336.57	3.948
336.85	3.948
337.13	3.954
337.68	3.959
337.95	3.959
338.23	3.959
338.51	3.956
338.78	3.954
339.06	3.956
339.33	3.962
339.61	3.964
339.88	3.964
340.16	3.964
340.44	3.967
340.71	3.967
340.99	3.967
341.26	3.969
341.54	3.969
341.81	3.972
342.09	3.972
342.37	3.972
342.64	3.975
344.57	3.977
344.85	3.977
345.12	3.977
345.4	3.977
345.67	3.977
345.95	3.975
346.23	3.975
346.5	3.975
346.78	3.975
347.05	3.975
347.33	3.975
347.61	3.972
347.88	3.972
348.16	3.972
348.43	3.969
348.71	3.969
348.98	3.967
349.26	3.967
351.19	3.962
351.47	3.962
351.74	3.959
352.02	3.959
352.29	3.956
352.57	3.956
352.84	3.954
353.12	3.951
353.4	3.948
353.67	3.946
353.95	3.946
354.22	3.943
354.5	3.941
354.78	3.938
355.05	3.938
356.43	3.928
356.71	3.925
356.98	3.92
357.26	3.917
357.53	3.914
357.81	3.912
358.08	3.909
358.36	3.904
358.64	3.901
358.91	3.899
359.19	3.899
359.46	3.896
360.84	3.883
361.12	3.883
361.39	3.88
361.67	3.875
361.94	3.872
362.22	3.87
362.5	3.865
362.77	3.862
363.05	3.857
363.32	3.854
363.6	3.852
363.88	3.849
364.15	3.849
365.25	3.836
365.53	3.831
365.81	3.825
366.08	3.82
366.36	3.812
366.63	3.81
366.91	3.804
367.18	3.802
367.46	3.799
367.74	3.797
368.01	3.799
369.67	3.762
369.94	3.76
370.22	3.757
370.49	3.752
370.77	3.744
371.04	3.741
371.32	3.736
371.6	3.734
371.87	3.731
372.15	3.731
374.08	3.697
374.35	3.694
374.63	3.689
374.91	3.684
375.18	3.676
375.46	3.673
375.73	3.671
376.01	3.668
376.28	3.666
376.56	3.663
377.66	3.629
377.94	3.624
378.21	3.618
378.49	3.613
378.77	3.608
379.04	3.597
379.32	3.595
379.59	3.592
379.87	3.595
381.25	3.569
381.52	3.561
381.8	3.555
382.08	3.553
382.35	3.54
382.63	3.537
382.9	3.537
383.18	3.534
383.45	3.532
384.28	3.503
384.56	3.503
384.83	3.5
385.11	3.493
385.38	3.487
385.66	3.482
385.94	3.477
386.21	3.472
386.49	3.466
386.76	3.464
387.31	3.44
387.59	3.44
387.87	3.438
388.14	3.432
388.42	3.427
388.69	3.422
388.97	3.417
389.25	3.409
390.07	3.377
390.35	3.377
390.62	3.372
390.9	3.367
391.18	3.359
391.45	3.354
391.73	3.346
392	3.341
392.28	3.314
392.55	3.314
392.83	3.314
393.11	3.309
393.38	3.304
393.66	3.299
393.93	3.291
394.21	3.283
394.48	3.278
394.76	3.246
395.04	3.246
395.31	3.241
395.59	3.233
395.86	3.228
