Uv/Vis Spectrum: 2,7-dihydro-2,4-diphenylpyrazolo[3,4-d]pyrimidin-6-one
Formula: C17H12N4O
CAS: 35016-25-2
Melting point: 270-271
Instrument: Specord
Origin: INSTITUTE OF ENERGY PROBLEMS OF CHEMICAL PHYSICS, RAS
Wavelength (nm)	Logarithm epsilon
202.961	4.461
203.961	4.476
204.961	4.484
205.961	4.485
206.961	4.48
207.961	4.471
208.961	4.457
209.961	4.441
210.961	4.422
211.961	4.402
212.961	4.379
213.961	4.356
214.961	4.332
215.961	4.306
216.961	4.28
217.961	4.253
218.961	4.225
219.961	4.195
220.961	4.164
221.961	4.131
222.961	4.098
223.961	4.063
224.961	4.027
225.961	3.992
226.796	3.956
227.796	3.933
228.796	3.912
229.796	3.893
230.796	3.877
231.796	3.864
232.796	3.853
233.796	3.845
234.796	3.838
235.796	3.834
236.796	3.832
237.796	3.832
238.796	3.833
239.796	3.836
240.796	3.84
241.796	3.845
242.796	3.851
243.796	3.858
244.796	3.865
245.796	3.874
246.796	3.885
247.796	3.898
248.544	3.91
249.544	3.927
250.544	3.958
251.544	3.994
252.544	4.029
253.544	4.061
254.544	4.087
255.544	4.106
256.544	4.119
257.544	4.127
258.544	4.131
259.544	4.134
260.544	4.135
261.355	4.135
262.355	4.132
263.355	4.125
264.355	4.117
265.355	4.108
266.355	4.101
267.355	4.094
268.355	4.09
269.355	4.087
270.355	4.088
271.355	4.09
272.355	4.095
273.355	4.102
274.355	4.11
275.355	4.12
276.355	4.129
277.355	4.139
278.355	4.148
279.355	4.156
280.355	4.163
281.355	4.167
282.355	4.17
283.355	4.17
284.355	4.168
285.355	4.164
286.355	4.158
286.382	4.158
287.382	4.152
288.382	4.144
289.382	4.135
290.382	4.125
291.382	4.114
292.382	4.103
293.382	4.091
294.382	4.08
295.382	4.068
296.382	4.057
297.382	4.046
298.382	4.035
299.382	4.024
300.382	4.013
301.382	4.003
302.382	3.992
303.382	3.982
304.382	3.973
305.382	3.963
306.382	3.954
307.382	3.945
308.382	3.936
309.382	3.927
310.382	3.919
311.382	3.912
312.382	3.904
313.382	3.898
314.382	3.892
315.382	3.887
316.382	3.883
317.382	3.88
318.382	3.878
319.382	3.877
320.382	3.878
321.382	3.88
321.392	3.882
322.392	3.882
323.392	3.887
324.392	3.894
325.392	3.903
326.392	3.913
327.392	3.923
328.392	3.934
329.392	3.944
330.392	3.953
331.392	3.962
332.392	3.971
333.392	3.979
334.392	3.987
335.392	3.994
336.392	4.002
337.392	4.011
338.392	4.019
339.392	4.029
340.392	4.038
341.392	4.048
342.392	4.058
343.392	4.068
344.392	4.076
345.392	4.083
347.006	4.094
348.006	4.1
349.006	4.106
350.006	4.11
351.006	4.113
352.006	4.115
353.006	4.116
354.006	4.116
355.006	4.114
356.006	4.111
357.006	4.107
358.006	4.102
359.006	4.095
360.006	4.087
361.006	4.078
362.006	4.068
363.006	4.056
364.006	4.042
365.006	4.028
365.035	4.031
366.035	4.01
367.035	3.988
368.035	3.966
369.035	3.944
370.035	3.92
371.035	3.897
372.035	3.872
373.035	3.845
374.035	3.818
375.035	3.789
376.035	3.758
377.035	3.725
378.035	3.691
379.035	3.654
380.035	3.615
381.035	3.574
382.035	3.531
383.035	3.485
384.035	3.437
385.035	3.386
386.035	3.334
387.035	3.279
388.035	3.223
389.035	3.165
390.035	3.105
391.035	3.044
392.035	2.983
