Uv/Vis Spectrum: 2-phenylthieno[2,3-b]thiophene
Formula: C12H8S2
CAS: 35022-10-7
Melting point: 165-166
Instrument: unknown
Origin: INSTITUTE OF ENERGY PROBLEMS OF CHEMICAL PHYSICS, RAS
Wavelength (nm)	Logarithm epsilon
210.541	4.096
211.041	4.103
211.541	4.11
212.041	4.116
212.541	4.122
213.041	4.127
213.541	4.133
214.041	4.138
214.541	4.143
215.041	4.148
215.541	4.153
216.041	4.158
216.541	4.163
217.041	4.168
217.541	4.173
218.041	4.177
218.541	4.182
219.041	4.186
219.541	4.189
220.041	4.193
220.541	4.195
221.041	4.198
221.541	4.2
222.041	4.202
222.541	4.203
223.041	4.204
223.541	4.205
224.041	4.205
224.541	4.205
225.041	4.204
225.541	4.203
226.041	4.202
226.541	4.201
227.041	4.2
227.541	4.199
228.041	4.197
228.541	4.196
229.041	4.195
229.541	4.195
230.041	4.194
230.541	4.194
231.041	4.194
231.541	4.195
232.041	4.196
232.541	4.198
233.041	4.199
233.541	4.201
234.041	4.204
234.11	4.205
234.61	4.205
235.11	4.206
235.61	4.207
236.11	4.208
236.61	4.208
237.11	4.208
237.61	4.207
238.11	4.206
238.61	4.204
239.11	4.202
239.61	4.199
240.11	4.196
240.61	4.192
241.11	4.188
241.61	4.183
242.11	4.178
242.61	4.172
243.11	4.165
243.61	4.159
244.11	4.152
244.61	4.145
245.11	4.137
245.61	4.129
246.11	4.121
246.61	4.113
247.11	4.105
247.61	4.097
248.11	4.089
248.61	4.081
249.11	4.073
249.61	4.065
250.11	4.057
250.61	4.049
251.11	4.042
251.61	4.034
252.11	4.027
252.61	4.019
253.11	4.012
253.61	4.005
254.11	3.999
254.61	3.992
255.11	3.985
255.61	3.979
256.11	3.973
256.61	3.966
257.11	3.96
257.61	3.954
258.11	3.948
258.61	3.942
259.11	3.936
259.61	3.93
260.11	3.924
260.61	3.919
260.746	3.918
261.246	3.911
261.746	3.905
262.246	3.899
262.746	3.895
263.246	3.891
263.746	3.888
264.246	3.885
264.746	3.884
265.246	3.883
265.746	3.883
266.246	3.884
266.746	3.885
267.246	3.887
267.746	3.889
268.246	3.892
268.746	3.895
269.246	3.899
269.746	3.904
270.246	3.908
270.746	3.913
271.246	3.919
271.746	3.925
272.246	3.931
272.746	3.937
273.246	3.943
273.746	3.95
274.246	3.957
274.746	3.964
275.246	3.97
275.746	3.977
276.246	3.985
276.746	3.992
277.246	3.999
277.746	4.006
278.246	4.013
278.746	4.019
279.246	4.026
279.746	4.033
280.246	4.039
280.746	4.046
281.246	4.052
281.746	4.058
282.246	4.064
282.746	4.069
283.246	4.075
283.746	4.08
284.246	4.085
284.746	4.09
285.246	4.094
285.746	4.098
286.246	4.102
286.746	4.106
287.246	4.109
287.746	4.112
288.246	4.115
288.746	4.117
289.246	4.118
289.746	4.12
290.064	4.12
290.564	4.12
291.064	4.121
291.564	4.122
292.064	4.123
292.564	4.123
293.064	4.124
293.564	4.125
294.064	4.126
294.564	4.126
295.064	4.127
295.564	4.127
296.064	4.127
296.564	4.126
297.064	4.126
297.564	4.125
298.064	4.125
298.564	4.123
299.064	4.122
299.564	4.121
300.064	4.119
300.564	4.117
301.064	4.115
301.564	4.113
302.064	4.111
302.564	4.108
303.064	4.106
303.564	4.103
304.064	4.099
304.564	4.096
305.064	4.092
305.564	4.087
306.064	4.082
306.564	4.077
307.064	4.07
307.564	4.063
308.064	4.055
308.564	4.045
309.064	4.034
309.564	4.022
310.064	4.008
310.564	3.991
311.064	3.973
311.564	3.951
312.064	3.927
312.292	3.912
312.792	3.88
313.292	3.85
313.792	3.822
314.292	3.795
314.792	3.77
315.292	3.747
315.792	3.724
316.292	3.703
316.792	3.684
317.292	3.665
317.792	3.648
318.292	3.632
318.792	3.616
319.292	3.602
319.792	3.589
320.292	3.576
320.792	3.564
321.292	3.552
321.792	3.542
322.292	3.531
322.792	3.521
323.292	3.512
323.792	3.503
324.292	3.494
324.792	3.485
325.292	3.476
325.792	3.467
326.292	3.459
326.792	3.45
327.292	3.44
327.792	3.431
328.292	3.421
328.792	3.411
329.292	3.401
329.73	3.393
