Uv/Vis Spectrum: Ethanone, 1-(3-pyridinyl)-
Formula: C7H7NO
CAS: 350-03-8
Melting point: 13.5
Boiling point: 220
Instrument: unknown
Origin: INSTITUTE OF ENERGY PROBLEMS OF CHEMICAL PHYSICS, RAS
Wavelength (nm)	Logarithm epsilon
209.65	3.586
210.82	3.607
212.15	3.627
213.48	3.648
214.64	3.669
215.81	3.69
216.97	3.715
217.94	3.738
219.06	3.768
219.97	3.795
220.97	3.824
221.96	3.854
223.13	3.879
224.29	3.9
225.62	3.92
226.96	3.941
228.45	3.946
229.78	3.929
230.78	3.9
231.78	3.874
232.78	3.849
233.78	3.824
234.55	3.797
235.61	3.761
236.44	3.732
237.27	3.703
237.93	3.674
238.77	3.64
239.6	3.611
240.43	3.581
241.26	3.552
242.1	3.519
242.93	3.489
243.93	3.46
244.76	3.431
245.44	3.405
246.34	3.377
247.34	3.348
248.42	3.322
249.92	3.309
251.41	3.314
252.75	3.326
253.91	3.347
255.07	3.368
256.41	3.385
257.74	3.401
259.07	3.418
260.4	3.435
261.73	3.448
263.06	3.46
264.56	3.464
266.06	3.46
267.55	3.448
268.89	3.427
269.88	3.401
270.74	3.378
271.88	3.347
272.88	3.318
273.88	3.293
274.73	3.268
275.76	3.243
276.71	3.213
277.7	3.184
278.7	3.159
279.87	3.134
280.87	3.104
281.86	3.075
282.86	3.05
283.86	3.025
284.86	3
285.86	2.975
286.96	2.947
288.02	2.92
289.18	2.895
290.35	2.87
291.51	2.849
292.85	2.828
294.34	2.815
