Uv/Vis Spectrum: 4H-1-Benzothiopyran-4-one, 2,3-dihydro-
Formula: C9H8OS
CAS: 3528-17-4
Melting point: 29-30
Instrument: Zeiss PMQ II
Origin: INSTITUTE OF ENERGY PROBLEMS OF CHEMICAL PHYSICS, RAS
Wavelength (nm)	Logarithm epsilon
202.04	3.946
202.13	3.946
202.22	3.944
202.31	3.944
202.4	3.942
202.49	3.942
202.57	3.94
202.66	3.937
202.75	3.937
202.84	3.935
202.93	3.935
203.02	3.933
203.11	3.933
203.2	3.931
203.29	3.929
203.37	3.929
203.46	3.927
203.55	3.927
203.64	3.925
203.73	3.925
204.09	3.908
204.63	3.901
205.18	3.895
205.72	3.884
206.27	3.876
206.83	3.867
207.38	3.859
207.94	3.852
208.5	3.844
209.07	3.835
209.63	3.824
210.2	3.816
210.78	3.807
211.36	3.801
211.94	3.79
212.52	3.78
213.11	3.771
213.7	3.767
214.29	3.76
214.89	3.756
215.49	3.752
216.09	3.752
216.7	3.752
217.31	3.758
217.92	3.763
218.54	3.773
219.16	3.786
219.78	3.799
220.41	3.814
221.04	3.833
221.67	3.852
222.31	3.869
222.95	3.893
223.6	3.916
224.25	3.94
224.9	3.963
225.56	3.989
226.22	4.014
226.89	4.038
227.56	4.059
228.23	4.085
228.91	4.11
229.59	4.138
230.27	4.168
230.96	4.193
231.65	4.221
232.35	4.238
233.05	4.255
233.76	4.266
234.47	4.279
235.18	4.29
235.9	4.3
236.62	4.311
237.35	4.319
238.08	4.328
238.82	4.336
239.56	4.345
240.31	4.351
241.06	4.358
241.81	4.36
242.57	4.36
243.34	4.347
244.11	4.313
244.88	4.262
245.66	4.193
246.44	4.127
247.23	4.046
248.03	3.976
248.83	3.912
249.63	3.846
250.44	3.803
251.26	3.769
252.08	3.75
252.9	3.741
253.74	3.741
254.57	3.741
255.41	3.743
256.26	3.754
257.12	3.765
257.98	3.777
258.84	3.788
259.71	3.799
260.59	3.807
261.47	3.812
262.36	3.818
263.25	3.82
264.15	3.818
265.06	3.812
265.98	3.805
266.89	3.797
267.82	3.782
268.75	3.767
269.69	3.741
270.64	3.705
271.59	3.669
272.55	3.624
273.51	3.568
274.49	3.489
275.47	3.406
276.45	3.291
277.45	3.163
278.45	3.035
279.46	2.907
279.86	2.847
280.31	2.795
280.61	2.742
281.07	2.689
281.4	2.634
281.76	2.584
282.03	2.542
282.18	2.523
282.36	2.503
282.49	2.486
282.67	2.472
282.87	2.452
283.56	2.41
284.61	2.378
285.66	2.369
286.72	2.363
287.79	2.361
288.87	2.359
289.95	2.356
291.05	2.361
292.15	2.371
293.26	2.388
294.38	2.41
295.5	2.431
296.64	2.452
297.78	2.476
298.94	2.495
300.1	2.516
301.27	2.542
302.45	2.563
303.64	2.593
304.84	2.623
306.05	2.657
307.27	2.689
308.21	2.72
309.03	2.746
309.88	2.774
310.98	2.807
312.24	2.847
313.5	2.879
314.78	2.911
316.07	2.943
317.37	2.979
318.68	3.011
320	3.039
321.34	3.071
322.68	3.103
324.03	3.133
325.4	3.165
326.78	3.195
328.17	3.214
329.57	3.242
330.98	3.265
332.41	3.289
333.84	3.308
335.29	3.329
336.76	3.346
338.23	3.364
339.72	3.376
341.22	3.391
342.74	3.402
344.26	3.413
345.81	3.421
347.36	3.428
348.93	3.434
350.52	3.438
352.12	3.438
353.73	3.434
355.36	3.428
357	3.421
358.66	3.406
360.34	3.387
362.03	3.366
363.73	3.342
365.45	3.312
367.19	3.282
368.95	3.242
370.72	3.201
372.51	3.15
374.31	3.099
376.14	3.039
377.98	2.965
379.84	2.903
381.72	2.819
383.61	2.73
385.53	2.606
387.47	2.478
389.42	2.356
391.06	2.27
392.61	2.191
393.52	2.122
394.44	2.068
395.15	2.016
395.71	1.984
397.44	1.906
399.5	1.793
