Uv/Vis Spectrum: Diethyl sulfide
Formula: C4H10S
CAS: 352-93-2
Melting point: -103.9
Boiling point: 92.1
Instrument: Beckman DU
Origin: INSTITUTE OF ENERGY PROBLEMS OF CHEMICAL PHYSICS, RAS
Wavelength (nm)	Logarithm epsilon
207.525	3.2439
207.945	3.26701
208.371	3.29001
208.807	3.31279
209.567	3.33588
210.066	3.35358
210.575	3.37128
211.089	3.38897
212.364	3.42483
214.176	3.41745
215.573	3.38797
216.684	3.34807
217.64	3.30943
218.41	3.2709
219.064	3.22927
219.728	3.18743
220.398	3.14547
220.877	3.11239
220.984	3.09653
221.395	3.06409
222.234	2.99196
222.615	2.95889
222.865	2.92189
223.368	2.88091
223.73	2.83897
223.842	2.8005
224.206	2.76552
224.635	2.72724
224.83	2.66236
224.836	2.688
224.861	2.65989
224.903	2.65742
224.95	2.65495
225.309	2.63175
225.458	2.58906
225.641	2.55327
225.79	2.50894
226.292	2.47339
226.507	2.42655
226.804	2.3785
227.279	2.33032
227.513	2.2943
227.544	2.29021
227.585	2.2859
227.632	2.28147
227.75	2.26864
227.857	2.22112
228.194	2.18037
228.737	2.12557
228.737	2.12557
228.738	2.1305
228.809	2.11901
228.887	2.11222
228.939	2.12491
228.975	2.10533
229.088	2.06686
229.137	2.06967
229.151	2.12403
229.186	2.07226
229.235	2.07474
229.369	2.12304
229.369	2.12304
229.459	1.99287
229.489	2.11549
229.609	2.10771
229.626	1.9794
229.728	2.09983
229.793	1.96571
229.959	1.9519
230.459	1.906
230.606	1.87885
230.763	1.8516
230.926	1.82411
231.19	1.80881
231.261	1.79695
231.337	1.78498
231.424	1.77279
231.685	1.74713
231.999	1.70813
232.324	1.66902
232.654	1.62969
232.891	1.60403
233.313	1.55469
233.598	1.52508
233.765	1.49449
234.12	1.456
234.334	1.4451
234.592	1.41721
235.116	1.34843
235.353	1.32326
235.716	1.28822
236.091	1.25318
236.471	1.21813
236.852	1.18506
237.26	1.13218
237.571	1.10308
237.823	1.07749
238.327	1.04687
238.81	1.00689
239.305	0.966906
239.806	0.926918
240.066	0.898791
240.55	0.857821
241.045	0.816851
241.545	0.77588
242.289	0.734888
242.595	0.698205
243.268	0.653936
243.914	0.614918
244.539	0.581335
245.144	0.541342
245.761	0.501333
246.383	0.461348
247.032	0.427746
247.56	0.396496
248.094	0.36502
248.639	0.333427
249.505	0.294885
250.041	0.266725
250.588	0.238573
251.139	0.210399
252.007	0.177277
252.16	0.163489
252.677	0.138271
