Uv/Vis Spectrum: N-(4-methoxy-5pyrimidinyl)ethanimidamide
Formula: C7H10N4O
CAS: 35390-37-5
Melting point: 140-142
Instrument: Hitachi EPS-3
Origin: INSTITUTE OF ENERGY PROBLEMS OF CHEMICAL PHYSICS, RAS
Wavelength (nm)	Logarithm epsilon
208.908	3.782
211.408	3.749
213.908	3.739
216.408	3.746
218.908	3.763
221.408	3.788
223.908	3.816
226.408	3.846
228.908	3.875
231.13	3.901
233.63	3.922
236.13	3.934
238.63	3.938
241.13	3.937
243.63	3.932
246.13	3.925
248.63	3.917
251.13	3.909
253.63	3.901
256.13	3.893
258.63	3.883
261.13	3.871
261.231	3.871
263.731	3.853
266.231	3.832
268.731	3.805
271.231	3.77
273.731	3.723
276.231	3.661
278.731	3.584
281.634	3.484
284.134	3.392
286.634	3.283
289.134	3.172
291.634	3.069
294.134	2.972
