Uv/Vis Spectrum: m-Aminobenzamide
Formula: C7H8N2O
CAS: 3544-24-9
Instrument: n.i.g.
Origin: INSTITUTE OF ENERGY PROBLEMS OF CHEMICAL PHYSICS, RAS
Wavelength (nm)	Logarithm epsilon
375.458	1.14078
374.722	1.16283
374.056	1.19136
374.012	1.22071
374.012	1.22071
373.853	1.21714
373.673	1.21356
373.483	1.20999
373.483	1.20999
373.12	1.23661
372.61	1.24965
372.043	1.27099
364.127	1.7383
364.125	1.73507
364.124	1.73162
364.122	1.72806
356.085	2.25375
356.081	2.24503
356.077	2.2362
356.073	2.22714
352.803	2.39473
352.483	2.40252
352.206	2.42112
351.733	2.46646
350.456	2.52746
350.322	2.53719
350.17	2.54693
350.008	2.55667
345.834	2.74531
345.553	2.75506
345.272	2.7648
344.992	2.77454
335.671	3.06694
335.671	3.06694
335.67	3.06336
335.668	3.05978
335.667	3.05619
335.286	3.06697
334.893	3.067
334.485	3.06702
333.314	3.0886
333.053	3.09935
332.793	3.10999
332.533	3.12039
321.961	3.25372
321.607	3.25375
321.245	3.25378
320.869	3.2538
316.553	3.28586
315.95	3.28737
315.409	3.29012
314.788	3.29163
303.294	3.27103
302.957	3.26876
302.794	3.26466
302.664	3.25521
302.664	3.25521
302.324	3.26599
302.106	3.26534
301.888	3.26447
301.813	3.25373
301.67	3.26348
300.954	3.25213
300.092	3.2503
300.092	3.2503
299.432	3.23132
298.89	3.21381
297.853	3.19725
292.417	3.08356
292.271	3.08291
292.125	3.08203
291.979	3.08104
289.856	3.01775
289.729	3.00836
289.469	3.00023
289.248	2.99119
281.954	2.74767
281.932	2.73971
281.79	2.73415
281.408	2.72622
278.337	2.62055
278.202	2.61287
278.061	2.60507
277.909	2.59704
276.113	2.53067
275.788	2.51538
275.331	2.50238
275.04	2.48265
272.499	2.4353
272.29	2.43722
272.069	2.43891
271.844	2.44049
267.677	2.74653
267.555	2.75269
267.428	2.75884
267.291	2.765
266.934	2.79934
266.922	2.807
266.822	2.81046
266.549	2.81269
266.058	2.88185
265.984	2.87672
265.904	2.87148
265.813	2.86601
264.861	2.9987
264.86	2.99511
264.859	2.99153
264.858	2.98795
263.275	3.13145
263.11	3.1335
262.946	3.13543
262.781	3.13714
262.781	3.13714
262.372	3.1846
261.838	3.22992
261.478	3.27499
260.531	3.29659
260.303	3.32191
259.974	3.34713
259.808	3.36527
252.698	3.70088
252.344	3.70066
252.243	3.70605
252.095	3.69678
252.028	3.71873
252	3.68458
251.809	3.73117
251.58	3.7435
251.58	3.7435
251.364	3.74542
251.144	3.74712
250.914	3.7487
249.363	3.77807
249.269	3.78177
249.1	3.78379
248.71	3.78582
246.749	3.81268
246.3	3.81562
245.739	3.82153
244.939	3.82622
244.939	3.82622
244.913	3.82914
244.878	3.83184
244.838	3.83442
239.037	3.85616
238.901	3.85617
238.765	3.85619
238.629	3.85621
233.338	3.97927
233.325	3.98688
233.225	3.99233
232.952	4.00031
230.117	4.08569
230.065	4.09834
230.008	4.11077
229.943	4.12308
