Uv/Vis Spectrum: 2-Phenylnaphthalene
Formula: C16H12
CAS: 35465-71-5
Instrument: n.i.g.
Origin: INSTITUTE OF ENERGY PROBLEMS OF CHEMICAL PHYSICS, RAS
Wavelength (nm)	Logarithm epsilon
223.095	4.56529
223.099	4.56076
223.316	4.56086
223.32	4.55633
223.537	4.55642
223.542	4.55133
223.759	4.55142
224.698	4.53314
224.702	4.52861
225.379	4.52889
225.389	4.51928
225.61	4.51484
225.615	4.50975
225.836	4.50531
228.603	4.44535
228.613	4.43573
228.856	4.43583
228.861	4.43074
229.773	4.41245
229.778	4.40792
229.994	4.40801
230.243	4.40302
230.46	4.40311
230.464	4.39859
230.681	4.39868
230.685	4.39415
230.934	4.38916
231.151	4.38925
231.155	4.38473
231.372	4.38482
231.593	4.38038
231.837	4.38049
231.841	4.3754
232.058	4.37549
232.279	4.37105
235.006	4.35351
235.467	4.35371
235.689	4.3487
235.932	4.34881
236.827	4.34918
237.038	4.35436
237.716	4.35464
237.955	4.35927
238.172	4.35936
238.384	4.36398
238.84	4.36926
238.845	4.36417
239.057	4.36935
239.269	4.37397
239.73	4.37416
240.177	4.3885
240.181	4.38397
242.164	4.4363
242.168	4.43177
242.371	4.44601
242.375	4.44148
242.583	4.45119
242.588	4.4461
243.03	4.46552
243.035	4.46043
243.243	4.47014
243.247	4.46561
243.477	4.47986
243.482	4.47477
243.694	4.47995
244.141	4.49428
244.146	4.48919
244.353	4.4989
244.358	4.49437
244.566	4.50352
244.57	4.49899
244.805	4.50871
245.021	4.5088
247.221	4.56122
247.225	4.55669
247.433	4.5664
247.672	4.57103
247.676	4.5665
247.889	4.57112
248.101	4.57573
248.345	4.57584
248.557	4.58102
248.769	4.58563
248.774	4.58111
249.013	4.58574
249.226	4.59035
249.437	4.59553
249.442	4.59044
249.894	4.60025
249.898	4.59573
250.571	4.60053
250.783	4.60515
251.461	4.60543
254.418	4.57385
254.422	4.56932
254.671	4.56433
254.675	4.5598
254.897	4.55537
254.901	4.55028
255.123	4.54584
255.127	4.54132
255.375	4.53633
255.38	4.5318
255.601	4.52737
255.606	4.52228
255.827	4.51784
255.831	4.51332
256.08	4.50833
256.089	4.49927
256.31	4.49427
256.315	4.48975
257.954	4.41969
257.963	4.41007
258.211	4.40565
258.22	4.39603
258.437	4.39612
258.446	4.38651
258.667	4.38207
258.676	4.37245
258.925	4.36803
258.934	4.35841
259.155	4.35398
259.164	4.34436
259.385	4.33993
260.361	4.28374
260.37	4.27412
260.587	4.27421
260.6	4.26007
260.821	4.25564
260.826	4.25054
261.07	4.25065
261.083	4.2365
261.3	4.2366
261.309	4.22754
261.53	4.22254
261.539	4.21349
261.788	4.2085
261.792	4.20398
262.009	4.20407
262.022	4.18992
262.239	4.19001
262.248	4.1804
262.469	4.17596
262.479	4.16635
263.887	4.11034
263.892	4.10581
264.14	4.10139
264.145	4.0963
264.366	4.09187
264.37	4.08734
264.592	4.08234
264.596	4.07781
264.844	4.07339
264.849	4.0683
265.07	4.06386
265.075	4.05934
265.296	4.05434
265.301	4.04981
265.544	4.04991
265.554	4.0403
265.775	4.03586
265.78	4.03077
265.996	4.03086
266.005	4.02181
266.254	4.01682
266.262	4.00777
267.427	3.95166
267.676	3.94667
267.68	3.94215
267.901	3.93771
267.911	3.92809
268.132	3.92366
268.137	3.91857
268.385	3.91414
268.394	3.90453
268.615	3.90009
268.624	3.89047
268.845	3.88604
268.855	3.87642
269.103	3.872
269.112	3.86238
269.329	3.86247
269.333	3.85795
269.554	3.85351
269.798	3.85361
270.692	3.85399
270.904	3.8586
271.121	3.85869
274.458	3.91215
274.702	3.91225
274.914	3.91687
275.131	3.91696
275.37	3.92159
275.582	3.92677
275.587	3.92168
275.799	3.92686
276.251	3.9361
276.467	3.9362
276.707	3.94139
277.136	3.9461
277.14	3.94157
277.375	3.95072
277.379	3.9462
277.592	3.95081
278.467	3.97042
280.012	3.99936
280.256	3.99946
281.132	4.01851
281.592	4.0187
281.805	4.02331
282.265	4.02351
282.486	4.01907
283.624	4.01955
283.845	4.01511
284.523	4.01539
284.744	4.01039
284.748	4.00587
284.992	4.00597
285.002	3.99635
285.218	3.99644
285.223	3.99192
285.444	3.98748
285.449	3.98239
285.665	3.98248
285.67	3.97796
285.918	3.97353
287.756	3.92223
287.76	3.91771
288.009	3.91272
288.013	3.90819
288.23	3.90828
288.234	3.90376
288.456	3.89876
288.46	3.89423
288.708	3.88981
288.713	3.88472
288.93	3.88481
288.934	3.88028
289.151	3.88037
289.155	3.87585
289.404	3.87086
289.408	3.86633
289.625	3.86642
289.634	3.8568
289.851	3.8569
289.856	3.85237
290.325	3.84294
290.33	3.83842
291.951	3.78703
291.96	3.77741
292.204	3.77752
292.208	3.77299
292.425	3.77308
292.434	3.76346
292.655	3.75903
292.659	3.7545
292.903	3.7546
292.913	3.74499
293.129	3.74508
293.134	3.74055
293.355	3.73555
293.36	3.73103
293.576	3.73112
293.581	3.72659
293.829	3.7216
293.834	3.71707
294.055	3.71264
294.06	3.70755
294.276	3.70764
294.281	3.70311
294.529	3.69869
294.538	3.68907
296.159	3.63768
296.169	3.62807
296.385	3.62816
296.39	3.62363
296.638	3.61921
296.643	3.61412
296.859	3.61421
296.868	3.60516
297.338	3.59573
297.342	3.59121
297.785	3.58177
297.789	3.57724
298.038	3.57226
298.042	3.56773
298.263	3.56329
298.268	3.5582
298.489	3.55377
298.494	3.54924
298.742	3.54425
300.151	3.48825
300.16	3.4792
300.377	3.47929
300.386	3.46967
300.603	3.46976
300.612	3.46014
300.829	3.46023
300.838	3.45062
301.082	3.45072
301.09	3.44167
301.307	3.44176
301.312	3.43667
301.533	3.43223
301.537	3.42771
301.786	3.42272
301.795	3.41366
302.011	3.41376
302.016	3.40867
302.237	3.40423
302.242	3.3997
302.485	3.39981
302.495	3.39019
304.111	3.34389
304.116	3.3388
304.337	3.33437
304.341	3.32984
304.585	3.32994
304.594	3.32032
304.811	3.32042
304.82	3.3108
305.037	3.31089
305.041	3.30636
305.285	3.30646
305.294	3.29685
305.511	3.29694
305.515	3.29241
305.985	3.28299
305.994	3.27394
306.211	3.27403
306.22	3.26441
306.437	3.2645
306.442	3.25941
306.69	3.25499
306.694	3.25046
306.911	3.25055
306.92	3.24093
307.137	3.24102
307.385	3.2366
309.01	3.18069
309.02	3.17107
309.236	3.17116
309.246	3.16154
309.462	3.16163
309.467	3.15711
309.711	3.15721
309.72	3.14759
309.936	3.14768
309.941	3.14316
310.162	3.13872
310.167	3.13363
310.415	3.12921
310.419	3.12468
310.636	3.12477
310.641	3.11968
310.858	3.11977
310.862	3.11524
311.106	3.11535
311.115	3.10573
311.332	3.10582
311.336	3.10129
311.557	3.09686
311.562	3.09177
311.806	3.09187
312.027	3.08744
312.031	3.08291
312.248	3.083
312.253	3.07791
312.497	3.07801
312.501	3.07348
312.718	3.07357
312.722	3.06905
312.939	3.06914
313.188	3.06415
313.192	3.05963
