Uv/Vis Spectrum: 4-(dimethylamino)-8-beta-D-ribofuranosyl-7(8H)-pteridinone
Formula: C13H17N5O5
CAS: 35898-38-5
Melting point: 158-160
Instrument: Cary 1115/15
Origin: INSTITUTE OF ENERGY PROBLEMS OF CHEMICAL PHYSICS, RAS
Wavelength (nm)	Logarithm epsilon
209.703	4.206
210.703	4.206
211.703	4.21
212.703	4.216
213.703	4.223
214.703	4.23
215.703	4.236
216.703	4.239
217.703	4.24
218.703	4.237
219.703	4.231
220.703	4.22
221.703	4.206
222.703	4.189
223.703	4.168
224.703	4.145
225.703	4.12
226.703	4.094
227.703	4.068
228.703	4.043
229.703	4.019
230.703	3.998
231.703	3.98
232.703	3.965
233.703	3.955
234.703	3.949
235.007	3.949
236.007	3.943
237.007	3.945
238.007	3.955
239.007	3.97
240.007	3.989
241.007	4.01
242.007	4.032
243.007	4.055
244.007	4.077
245.007	4.098
246.007	4.117
247.007	4.134
248.007	4.148
249.007	4.16
250.007	4.168
251.007	4.174
252.007	4.178
253.007	4.179
254.007	4.178
255.007	4.174
255.251	4.174
256.251	4.169
257.251	4.163
258.251	4.155
259.251	4.147
260.251	4.138
261.251	4.129
262.251	4.12
263.251	4.111
264.251	4.101
265.251	4.09
266.251	4.079
267.251	4.066
268.251	4.051
269.251	4.034
270.251	4.014
271.251	3.992
272.251	3.967
273.251	3.94
274.251	3.91
275.251	3.88
276.251	3.848
277.251	3.818
277.876	3.798
278.876	3.772
279.876	3.751
280.876	3.735
281.876	3.723
282.876	3.714
283.876	3.709
284.876	3.707
285.876	3.707
286.876	3.709
287.876	3.712
288.876	3.717
289.876	3.723
290.876	3.728
291.876	3.734
292.876	3.74
293.876	3.745
294.876	3.749
295.876	3.752
296.876	3.754
297.876	3.755
298.876	3.754
299.876	3.752
300.876	3.748
301.876	3.743
302.876	3.736
303.876	3.728
304.876	3.718
305.876	3.707
306.876	3.695
307.876	3.682
308.876	3.668
309.876	3.652
310.623	3.643
311.623	3.623
312.623	3.605
313.623	3.59
314.623	3.578
315.623	3.568
316.623	3.561
317.623	3.555
318.623	3.552
319.623	3.551
320.623	3.551
321.623	3.553
322.623	3.556
323.623	3.561
324.623	3.567
325.623	3.574
326.623	3.582
327.623	3.591
328.623	3.6
329.623	3.61
330.623	3.62
331.623	3.631
332.623	3.642
333.623	3.653
334.623	3.664
335.623	3.675
336.623	3.687
337.623	3.698
338.606	3.704
339.606	3.72
340.606	3.734
341.606	3.747
342.606	3.76
343.606	3.771
344.606	3.782
345.606	3.793
346.606	3.803
347.606	3.813
348.606	3.823
349.606	3.833
350.606	3.842
351.606	3.851
352.606	3.86
353.606	3.868
354.606	3.876
355.606	3.884
356.606	3.891
357.606	3.898
358.606	3.904
359.606	3.91
360.606	3.915
361.606	3.919
362.606	3.923
363.606	3.926
364.606	3.928
365.606	3.929
366.606	3.93
367.606	3.93
368.606	3.929
369.606	3.927
370.606	3.925
371.606	3.922
371.651	3.921
372.651	3.919
373.651	3.914
374.651	3.906
375.651	3.898
376.651	3.888
377.651	3.878
378.651	3.867
379.651	3.855
380.651	3.844
381.651	3.831
382.651	3.819
383.651	3.805
384.651	3.791
385.651	3.776
386.651	3.76
387.651	3.741
388.651	3.72
389.651	3.695
390.651	3.667
391.651	3.635
391.895	3.625
392.895	3.594
393.895	3.556
394.895	3.51
395.895	3.457
396.895	3.397
397.895	3.33
398.895	3.256
