Uv/Vis Spectrum: 1,5-bis(4-nitrophenyl)-2,4-pentadien-1-one
Formula: C17H12N2O5
CAS: 3588-00-9
Melting point: 201-202
Instrument: SF-4A
Origin: INSTITUTE OF ENERGY PROBLEMS OF CHEMICAL PHYSICS, RAS
Wavelength (nm)	Logarithm epsilon
213.1	3.998
214.6	4.006
216.1	4.014
217.6	4.02
219.1	4.026
220.6	4.031
222.1	4.035
223.6	4.038
225.1	4.041
226.6	4.043
228.1	4.045
229.6	4.047
231.1	4.049
232.6	4.051
234.1	4.053
235.6	4.055
237.1	4.058
238.6	4.062
240.1	4.066
241.6	4.071
243.1	4.077
244.6	4.084
246.1	4.092
247.6	4.101
249.1	4.11
250.6	4.12
252.1	4.13
253.6	4.141
255.1	4.151
256.6	4.161
258.1	4.171
259.6	4.18
261.1	4.187
262.6	4.192
264.1	4.196
265.6	4.197
267.1	4.196
268.6	4.192
270.1	4.185
271.6	4.176
273.1	4.164
274.6	4.15
275.884	4.135
277.384	4.125
278.884	4.111
280.384	4.095
281.884	4.08
283.384	4.065
284.884	4.053
286.384	4.043
287.884	4.037
289.384	4.033
290.884	4.033
292.384	4.036
293.884	4.04
295.384	4.047
296.884	4.055
298.384	4.064
299.884	4.074
301.384	4.084
302.884	4.094
304.384	4.105
305.884	4.116
307.723	4.131
309.223	4.144
310.723	4.157
312.223	4.171
313.723	4.185
315.223	4.199
316.723	4.214
318.223	4.228
319.723	4.243
321.223	4.258
322.723	4.272
324.223	4.286
325.723	4.301
327.223	4.315
328.723	4.329
330.223	4.342
331.723	4.356
333.223	4.369
334.723	4.382
336.223	4.395
337.723	4.408
339.223	4.42
340.723	4.432
342.223	4.443
343.723	4.454
345.223	4.465
346.723	4.475
348.223	4.484
349.723	4.492
351.223	4.499
352.723	4.505
354.223	4.51
355.723	4.513
357.223	4.515
358.723	4.515
360.223	4.514
361.723	4.51
363.223	4.506
364.723	4.499
366.223	4.491
367.723	4.481
369.223	4.47
370.723	4.457
372.223	4.443
373.723	4.428
375.223	4.412
376.723	4.394
378.223	4.376
379.723	4.356
381.223	4.335
382.723	4.312
384.223	4.288
385.723	4.261
387.223	4.232
388.723	4.199
390.223	4.163
391.723	4.123
393.223	4.078
394.723	4.029
396.223	3.975
397.723	3.918
399.223	3.86
