Uv/Vis Spectrum: 6,6-dimethyldibenzo[d,f]dithiepin
Formula: C15H14S2
CAS: 35864-06-3
Melting point: 94.5-95.5
Instrument: SFD-2
Origin: INSTITUTE OF ENERGY PROBLEMS OF CHEMICAL PHYSICS, RAS
Wavelength (nm)	Logarithm epsilon
206.812	4.57
207.812	4.573
208.812	4.582
209.812	4.596
210.812	4.61
211.812	4.622
212.812	4.631
213.812	4.635
214.812	4.635
215.812	4.628
216.812	4.615
217.812	4.597
218.812	4.575
219.812	4.548
220.812	4.519
221.812	4.487
222.812	4.455
223.812	4.423
224.812	4.392
225.812	4.362
226.812	4.334
227.66	4.312
228.66	4.283
229.66	4.251
230.66	4.218
231.66	4.185
232.66	4.154
233.66	4.125
234.66	4.098
235.66	4.074
236.66	4.053
237.66	4.036
238.66	4.02
239.66	4.007
240.66	3.997
241.66	3.987
242.66	3.979
243.66	3.972
244.66	3.964
245.66	3.956
246.66	3.947
246.717	3.95
247.717	3.932
248.717	3.921
249.717	3.915
250.717	3.911
251.717	3.908
252.717	3.905
253.717	3.9
254.717	3.892
255.717	3.882
256.717	3.869
257.717	3.854
258.717	3.836
259.717	3.816
260.717	3.794
261.717	3.772
262.717	3.75
263.717	3.728
264.717	3.707
265.717	3.687
266.717	3.67
267.717	3.654
268.717	3.64
269.717	3.628
269.845	3.625
270.845	3.616
271.845	3.603
272.845	3.587
273.845	3.57
274.845	3.552
275.845	3.534
276.845	3.516
277.845	3.499
278.845	3.481
279.845	3.464
280.845	3.446
281.845	3.427
282.845	3.407
283.845	3.387
284.845	3.365
285.845	3.342
286.845	3.318
287.845	3.293
288.845	3.268
289.845	3.241
290.845	3.213
291.845	3.183
292.845	3.151
293.788	3.116
294.788	3.076
295.788	3.036
296.788	2.997
297.788	2.957
298.788	2.916
299.788	2.874
300.788	2.83
301.788	2.785
302.788	2.739
303.788	2.691
304.788	2.642
305.788	2.591
306.788	2.538
307.788	2.483
308.788	2.425
309.788	2.364
