Uv/Vis Spectrum: Acetamide, N-(4-methoxyphenyl)-N-methyl-
Formula: C10H13NO2
CAS: 35813-38-8
Melting point: 56-57
Instrument: Spektromom 201
Origin: INSTITUTE OF ENERGY PROBLEMS OF CHEMICAL PHYSICS, RAS
Wavelength (nm)	Logarithm epsilon
203.93	4.363
204.61	4.336
205.29	4.309
205.97	4.282
206.49	4.254
207	4.227
207.68	4.2
208.36	4.173
208.88	4.145
209.39	4.118
210.07	4.091
210.75	4.064
211.09	4.033
211.78	4.006
212.29	3.979
212.97	3.951
213.66	3.924
214.17	3.897
215.19	3.873
216.56	3.859
218.09	3.87
219.12	3.89
220.14	3.914
220.65	3.941
221.68	3.965
222.53	3.989
223.56	4.009
224.75	4.03
226.12	4.047
227.48	4.057
228.85	4.067
230.38	4.064
231.92	4.053
233.28	4.036
234.48	4.016
235.5	3.996
236.36	3.972
237.21	3.948
237.89	3.921
238.41	3.893
238.92	3.866
239.6	3.839
240.28	3.812
240.97	3.784
241.65	3.757
242.33	3.73
242.84	3.703
243.53	3.676
244.21	3.648
244.89	3.621
245.74	3.594
246.26	3.567
246.77	3.539
247.45	3.512
248.13	3.485
248.82	3.458
249.5	3.43
250.18	3.403
250.87	3.376
251.38	3.349
252.06	3.321
252.74	3.294
253.6	3.267
254.28	3.24
254.79	3.212
255.47	3.185
256.16	3.158
257.01	3.134
257.86	3.107
258.89	3.086
260.08	3.066
261.28	3.049
262.81	3.039
264.35	3.049
265.54	3.066
266.74	3.086
267.93	3.104
269.13	3.124
270.32	3.144
271.52	3.165
272.88	3.178
274.25	3.195
275.79	3.202
277.32	3.202
278.69	3.192
279.71	3.168
280.91	3.148
282.27	3.131
283.47	3.114
284.66	3.093
285.52	3.066
286.03	3.039
286.37	3.008
286.71	2.978
287.22	2.95
287.56	2.92
287.91	2.889
288.25	2.858
288.42	2.828
288.76	2.797
289.1	2.766
289.44	2.736
289.78	2.705
289.95	2.675
290.29	2.644
290.64	2.613
290.98	2.583
291.32	2.552
291.66	2.521
291.83	2.491
292.17	2.46
292.51	2.429
292.68	2.399
293.03	2.368
294.22	2.218
294.56	2.188
294.73	2.157
295.07	2.126
295.42	2.096
295.59	2.065
295.93	2.034
296.27	2.004
296.44	1.973
296.61	1.942
296.95	1.912
297.29	1.881
297.46	1.851
297.63	1.82
297.98	1.789
298.15	1.759
298.49	1.728
299	1.697
299.34	1.667
299.51	1.636
299.68	1.605
300.19	1.578
300.54	1.548
301.05	1.517
301.22	1.486
301.56	1.456
302.07	1.425
302.58	1.394
303.1	1.367
303.61	1.336
303.78	1.306
304.29	1.279
304.8	1.248
305.32	1.221
305.83	1.193
306.34	1.166
306.85	1.136
307.36	1.108
308.05	1.081
308.56	1.054
