Uv/Vis Spectrum: trans,trans-Muconic acid
Formula: C6H6O4
CAS: 3588-17-8
Melting point: 298.2
Instrument: Zeiss PMQ II
Origin: INSTITUTE OF ENERGY PROBLEMS OF CHEMICAL PHYSICS, RAS
Wavelength (nm)	Logarithm epsilon
193.42	3.596
193.88	3.596
194.67	3.597
195.39	3.598
195.99	3.6
196.54	3.603
196.8	3.605
197	3.607
197.31	3.609
197.81	3.611
198.26	3.612
198.81	3.613
199.32	3.613
199.83	3.613
200.34	3.613
200.85	3.613
201.37	3.613
201.86	3.612
202.14	3.611
202.52	3.609
202.86	3.608
203.44	3.606
204.56	3.603
205.1	3.601
205.59	3.6
206.14	3.598
206.68	3.596
207.23	3.593
207.78	3.59
208.27	3.585
208.89	3.581
209.44	3.579
210.01	3.577
210.57	3.575
211.14	3.573
211.71	3.571
212.28	3.568
212.85	3.566
213.44	3.564
213.99	3.562
214.61	3.562
215.2	3.562
215.77	3.563
216.39	3.566
217.05	3.57
217.59	3.575
218.19	3.581
218.8	3.59
219.42	3.596
220.03	3.605
220.65	3.615
221.28	3.626
221.9	3.637
222.53	3.654
223.17	3.667
223.81	3.684
224.45	3.699
225.09	3.718
225.74	3.735
226.39	3.756
227.05	3.778
227.71	3.801
228.37	3.827
229.04	3.85
229.71	3.874
230.39	3.9
231.07	3.923
231.75	3.944
232.44	3.968
233.13	3.994
233.83	4.019
234.53	4.041
235.23	4.062
235.94	4.085
236.65	4.107
237.37	4.126
238.09	4.145
238.81	4.162
239.55	4.182
240.28	4.201
241.02	4.22
241.76	4.237
242.51	4.254
243.26	4.274
244.02	4.288
244.78	4.306
245.55	4.321
246.32	4.333
247.1	4.35
247.88	4.363
248.67	4.374
249.46	4.385
250.26	4.395
251.06	4.406
251.87	4.415
252.68	4.421
253.5	4.427
254.32	4.436
255.15	4.44
255.98	4.449
256.82	4.451
257.67	4.459
258.52	4.459
259.37	4.462
260.23	4.459
261.1	4.457
261.97	4.453
262.85	4.449
263.74	4.44
264.63	4.429
265.53	4.417
266.43	4.404
267.34	4.387
268.25	4.374
269.18	4.361
270.1	4.342
271.04	4.321
271.98	4.297
272.93	4.274
273.88	4.246
274.84	4.209
275.81	4.171
276.78	4.13
277.77	4.079
278.75	4.026
279.75	3.953
280.75	3.863
281.76	3.776
282.78	3.675
283.8	3.613
284.83	3.553
285.87	3.487
286.92	3.436
287.98	3.374
289.04	3.312
290.11	3.256
291.19	3.197
292.27	3.137
293.37	3.075
294.47	3.015
295.58	2.955
296.7	2.9
297.83	2.842
298.97	2.788
300.11	2.729
301.27	2.673
302.43	2.615
303.6	2.562
304.78	2.502
305.97	2.442
307.17	2.389
308.31	2.344
309.5	2.293
310.63	2.245
311.71	2.197
313	2.142
314.18	2.083
315.57	2.017
316.86	1.955
317.99	1.892
319.22	1.822
320.61	1.742
322.05	1.657
323.5	1.569
325.01	1.476
326.37	1.397
327.73	1.312
329.11	1.226
