Uv/Vis Spectrum: -methyl-4-(1-naphthalenyl)-3(2H)-pyridazinone
Formula: C15H12N2O
CAS: 35991-38-9
Melting point: 175
Instrument: Pye Unicam SP 8000
Origin: INSTITUTE OF ENERGY PROBLEMS OF CHEMICAL PHYSICS, RAS
Wavelength (nm)	Logarithm epsilon
221.041	4.48
222.541	4.497
224.041	4.497
225.541	4.476
227.041	4.436
228.541	4.384
230.041	4.326
231.541	4.264
232.444	4.219
233.135	4.182
234.635	4.11
236.135	4.042
237.635	3.979
239.135	3.921
240.635	3.869
242.135	3.822
243.635	3.78
245.135	3.743
246.635	3.711
248.135	3.683
249.635	3.658
251.135	3.637
252.635	3.62
254.135	3.605
255.635	3.594
257.135	3.585
258.635	3.58
260.135	3.579
261.635	3.581
263.135	3.588
264.635	3.599
266.135	3.614
267.635	3.633
269.135	3.656
270.455	3.678
271.955	3.703
273.455	3.728
274.955	3.753
276.455	3.776
277.955	3.795
279.455	3.806
280.955	3.806
282.455	3.796
283.932	3.776
285.432	3.756
286.932	3.745
288.432	3.75
290.152	3.77
291.652	3.79
293.152	3.8
294.652	3.795
296.372	3.769
297.872	3.747
299.372	3.736
300.872	3.73
302.372	3.727
303.872	3.728
305.372	3.734
306.872	3.745
308.372	3.761
309.872	3.777
311.436	3.789
312.936	3.799
314.436	3.803
315.936	3.801
317.436	3.794
318.936	3.784
320.436	3.77
321.936	3.753
323.436	3.733
324.936	3.71
326.436	3.685
327.936	3.655
329.436	3.622
330.936	3.583
332.436	3.537
333.936	3.482
335.436	3.415
336.936	3.333
338.436	3.234
339.936	3.111
341.436	2.961
