Uv/Vis Spectrum: Ethene, 2-chloro-1,1-difluoro-
Formula: C2HClF2
CAS: 359-10-4
Melting point: - 138.5
Boiling point: - 18.5
Instrument: Beckman DU
Origin: INSTITUTE OF ENERGY PROBLEMS OF CHEMICAL PHYSICS, RAS
Wavelength (nm)	Logarithm epsilon
227.84	1.663
227.88	1.657
227.91	1.652
227.94	1.647
228.01	1.633
228.07	1.625
228.16	1.613
228.23	1.601
228.35	1.585
228.43	1.573
228.49	1.565
228.58	1.554
228.66	1.546
228.72	1.54
228.76	1.535
228.83	1.53
228.93	1.518
229.07	1.506
229.2	1.491
229.36	1.476
229.47	1.464
229.59	1.454
229.74	1.441
229.87	1.426
230.01	1.414
230.22	1.4
230.43	1.385
230.58	1.369
230.74	1.354
230.92	1.336
231.06	1.321
231.31	1.301
231.48	1.284
231.7	1.265
231.91	1.245
232.17	1.225
232.43	1.202
232.65	1.178
232.87	1.153
233.11	1.127
233.4	1.099
233.74	1.072
234.05	1.041
234.38	1.006
234.7	0.969
235.08	0.929
235.47	0.893
236.02	0.85
236.46	0.802
236.9	0.747
237.46	0.685
238.01	0.623
238.69	0.55
239.36	0.47
240.16	0.369
240.96	0.273
241.88	0.164
242.92	0.058
243.86	-0.025
