Uv/Vis Spectrum: 4-amino-8-beta-D-ribofuranosyl-7(8H)-pteridinone
Formula: C11H13N5O5
CAS: 35997-19-4
Melting point: 120-125
Instrument: Cary 1115/15
Origin: INSTITUTE OF ENERGY PROBLEMS OF CHEMICAL PHYSICS, RAS
Wavelength (nm)	Logarithm epsilon
224.814	4.284
226.314	4.226
227.814	4.174
229.314	4.127
230.814	4.085
232.314	4.05
233.814	4.02
235.314	3.996
236.814	3.979
238.314	3.968
239.814	3.964
241.314	3.965
242.814	3.969
244.167	3.976
245.667	3.986
247.167	3.996
248.667	3.998
250.167	3.992
251.667	3.977
253.167	3.953
254.668	3.914
256.168	3.865
257.668	3.813
259.168	3.76
260.668	3.708
262.168	3.66
263.668	3.617
265.168	3.58
266.668	3.551
268.168	3.53
269.668	3.516
271.168	3.509
272.668	3.508
274.168	3.514
275.668	3.526
277.247	3.539
278.747	3.554
280.247	3.569
281.747	3.584
283.247	3.599
284.747	3.613
286.247	3.626
287.747	3.638
289.247	3.648
290.747	3.658
292.247	3.667
293.747	3.675
295.247	3.683
296.747	3.69
298.247	3.697
299.747	3.705
301.247	3.712
302.747	3.72
304.247	3.729
305.747	3.739
307.247	3.749
308.747	3.76
310.247	3.772
311.747	3.785
313.247	3.798
314.747	3.811
316.247	3.825
317.747	3.838
319.247	3.851
320.747	3.863
322.247	3.874
323.747	3.884
325.554	3.895
327.054	3.903
328.554	3.908
330.054	3.912
331.554	3.914
333.054	3.916
334.554	3.916
336.054	3.916
337.554	3.914
339.054	3.91
340.554	3.904
342.054	3.896
343.554	3.886
345.054	3.873
346.554	3.857
348.054	3.839
349.554	3.818
351.054	3.794
352.554	3.768
354.054	3.738
355.554	3.706
357.054	3.669
358.554	3.628
360.054	3.579
361.554	3.521
363.054	3.45
364.554	3.361
