Uv/Vis Spectrum: 6-methyl-4-(phenymethyl)-3(2H)-pyridazinone
Formula: C12H12N2O
CAS: 35991-02-7
Melting point: 165-166
Instrument: Pye Unicam SP 8000
Origin: INSTITUTE OF ENERGY PROBLEMS OF CHEMICAL PHYSICS, RAS
Wavelength (nm)	Logarithm epsilon
216.735	3.827
217.235	3.815
217.735	3.804
218.235	3.793
218.735	3.782
219.235	3.773
219.735	3.763
220.235	3.754
220.735	3.746
221.235	3.738
221.735	3.731
222.235	3.723
222.735	3.716
223.235	3.709
223.735	3.702
224.235	3.695
224.735	3.687
225.235	3.679
225.735	3.671
226.235	3.662
226.735	3.653
227.235	3.643
227.735	3.632
228.235	3.621
228.735	3.609
229.235	3.596
229.735	3.583
230.235	3.568
230.735	3.553
231.235	3.538
231.735	3.522
232.235	3.505
232.735	3.488
233.235	3.472
233.735	3.455
234.489	3.433
234.989	3.413
235.489	3.397
235.989	3.383
236.489	3.371
236.989	3.359
237.489	3.347
237.989	3.334
238.489	3.321
238.989	3.305
239.489	3.289
239.989	3.271
240.489	3.252
240.989	3.231
241.489	3.211
241.989	3.19
242.489	3.17
242.989	3.15
243.489	3.13
243.989	3.109
244.575	3.083
245.075	3.062
245.575	3.04
246.075	3.018
246.575	2.996
247.075	2.974
247.575	2.952
248.075	2.931
248.575	2.91
249.075	2.889
249.575	2.869
250.075	2.85
250.575	2.832
251.075	2.816
251.575	2.801
252.075	2.788
252.575	2.777
253.075	2.769
253.575	2.762
254.075	2.759
254.575	2.758
255.075	2.76
255.575	2.764
256.075	2.771
256.575	2.78
257.075	2.792
257.575	2.805
258.075	2.821
258.575	2.837
259.075	2.855
259.575	2.874
260.075	2.893
260.575	2.913
261.075	2.934
261.575	2.954
262.075	2.975
262.575	2.995
263.075	3.015
263.398	3.031
263.903	3.048
264.403	3.07
264.903	3.089
265.403	3.105
265.903	3.121
266.403	3.135
266.903	3.15
267.403	3.164
267.903	3.178
268.403	3.192
268.903	3.207
269.403	3.22
269.903	3.234
270.403	3.247
270.903	3.259
271.403	3.271
271.903	3.282
272.403	3.292
272.903	3.301
273.403	3.31
273.903	3.318
274.403	3.326
274.903	3.334
275.403	3.343
275.903	3.353
276.403	3.364
276.903	3.378
277.056	3.381
277.556	3.394
278.056	3.406
278.556	3.418
279.056	3.431
279.556	3.443
280.056	3.454
280.556	3.465
281.056	3.476
281.556	3.485
282.056	3.494
282.556	3.503
283.056	3.511
283.556	3.518
284.056	3.525
284.556	3.531
284.963	3.535
285.463	3.544
285.963	3.551
286.463	3.558
286.963	3.563
287.463	3.568
287.963	3.571
288.463	3.574
288.963	3.576
289.463	3.577
289.963	3.577
290.463	3.576
290.963	3.575
291.463	3.573
291.963	3.571
292.463	3.567
292.963	3.563
293.463	3.559
293.963	3.554
294.463	3.548
294.963	3.542
295.463	3.535
295.963	3.528
296.463	3.52
296.963	3.512
297.463	3.503
297.963	3.494
298.463	3.484
298.963	3.474
299.463	3.463
299.963	3.452
300.463	3.441
300.963	3.429
301.463	3.417
301.963	3.404
302.463	3.39
302.739	3.376
303.239	3.367
303.739	3.355
304.239	3.341
304.739	3.326
305.239	3.309
305.739	3.292
306.239	3.274
306.739	3.255
307.239	3.237
307.739	3.219
308.239	3.201
308.739	3.184
309.239	3.167
309.739	3.152
310.239	3.137
310.739	3.123
311.239	3.11
311.739	3.098
312.239	3.086
312.739	3.075
313.239	3.064
313.739	3.054
314.239	3.043
314.739	3.032
315.239	3.02
315.739	3.007
316.239	2.993
316.739	2.978
317.239	2.962
317.739	2.945
318.239	2.926
318.739	2.906
319.239	2.885
319.739	2.864
320.239	2.844
320.739	2.826
321.239	2.813
