Uv/Vis Spectrum: 4,5-dihydro-6-[2-(4-methoxyphenyl)ethenyl]-3(2H)-pyridazinone
Formula: C13H14N2O2
CAS: 35990-93-3
Melting point: 187-188
Instrument: unknown
Origin: INSTITUTE OF ENERGY PROBLEMS OF CHEMICAL PHYSICS, RAS
Wavelength (nm)	Logarithm epsilon
221.266	3.761
221.766	3.77
222.266	3.78
222.766	3.791
223.266	3.803
223.766	3.815
224.266	3.827
224.766	3.838
225.266	3.848
225.766	3.858
226.266	3.866
226.766	3.874
227.266	3.88
227.766	3.885
228.266	3.889
228.766	3.892
229.266	3.894
229.766	3.894
230.266	3.893
230.766	3.891
231.266	3.888
231.766	3.884
232.266	3.879
232.766	3.873
233.266	3.866
233.766	3.858
234.266	3.849
234.766	3.84
235.266	3.83
235.766	3.819
236.266	3.808
236.766	3.796
237.266	3.784
237.766	3.772
238.266	3.76
238.766	3.748
239.266	3.736
239.766	3.724
240.266	3.713
240.766	3.701
241.266	3.691
241.766	3.681
242.266	3.671
242.766	3.661
243.266	3.652
243.752	3.639
244.274	3.627
244.829	3.612
245.329	3.599
245.829	3.586
246.329	3.572
246.829	3.556
247.329	3.54
247.829	3.523
248.329	3.505
248.829	3.487
249.329	3.468
249.829	3.448
250.329	3.427
250.829	3.406
251.329	3.384
251.829	3.362
252.329	3.34
252.829	3.317
253.329	3.293
253.829	3.269
254.329	3.245
254.829	3.221
255.329	3.197
255.829	3.172
256.329	3.148
256.829	3.123
257.329	3.099
257.829	3.074
258.329	3.05
258.829	3.027
259.329	3.004
259.829	2.981
260.329	2.959
260.829	2.938
261.329	2.918
261.829	2.899
262.329	2.881
262.829	2.864
263.329	2.848
263.829	2.833
264.329	2.82
264.829	2.809
265.329	2.799
265.829	2.79
266.329	2.783
266.829	2.777
267.329	2.773
267.829	2.771
268.329	2.77
268.829	2.77
269.329	2.772
269.829	2.775
270.329	2.779
270.829	2.784
271.329	2.791
271.829	2.798
272.329	2.806
272.829	2.816
273.329	2.826
273.829	2.837
274.329	2.848
274.829	2.86
275.329	2.873
275.829	2.887
276.329	2.901
276.829	2.915
277.329	2.93
277.829	2.945
278.329	2.96
278.829	2.976
279.329	2.992
279.829	3.009
280.329	3.025
280.829	3.042
281.329	3.059
281.829	3.076
282.329	3.093
282.829	3.11
283.329	3.128
283.829	3.145
284.329	3.162
284.829	3.18
285.329	3.197
285.829	3.214
286.329	3.231
286.829	3.248
287.329	3.265
287.829	3.282
288.329	3.299
288.829	3.315
289.329	3.332
289.829	3.348
290.329	3.364
290.829	3.38
291.329	3.395
291.829	3.411
292.329	3.426
292.829	3.441
293.329	3.456
293.829	3.471
294.329	3.485
294.829	3.5
295.329	3.514
295.829	3.528
296.329	3.542
296.829	3.556
297.329	3.569
297.829	3.583
298.329	3.596
298.829	3.61
299.329	3.623
299.829	3.636
300.329	3.65
300.829	3.663
301.329	3.677
301.829	3.69
302.329	3.704
302.829	3.718
303.477	3.736
304.07	3.751
304.534	3.767
305.034	3.783
305.534	3.797
306.034	3.809
306.534	3.82
307.034	3.831
307.534	3.842
308.034	3.853
308.534	3.865
309.034	3.878
309.534	3.891
310.034	3.905
310.534	3.919
311.034	3.932
311.534	3.946
312.034	3.959
312.534	3.972
313.034	3.984
313.534	3.996
314.034	4.006
314.534	4.016
315.034	4.025
315.042	4.026
315.542	4.032
316.042	4.04
316.542	4.048
317.042	4.055
317.542	4.061
318.042	4.066
318.542	4.073
319.042	4.083
319.542	4.102
320.042	4.131
320.542	4.174
321.042	4.232
321.393	4.291
321.837	4.34
322.344	4.385
322.851	4.425
323.347	4.456
323.847	4.492
324.347	4.528
324.854	4.558
325.354	4.583
325.854	4.593
326.354	4.595
326.854	4.592
327.354	4.584
327.854	4.575
328.354	4.565
328.854	4.555
329.354	4.546
329.98	4.531
330.48	4.521
330.98	4.511
331.48	4.502
331.98	4.493
332.48	4.483
332.98	4.473
333.48	4.463
333.98	4.452
334.48	4.44
334.98	4.428
335.48	4.415
335.98	4.401
336.48	4.386
336.98	4.371
337.48	4.355
337.98	4.338
338.48	4.321
338.802	4.308
339.302	4.29
339.802	4.273
340.302	4.256
340.802	4.239
341.302	4.222
341.802	4.205
342.302	4.188
342.802	4.171
343.302	4.154
343.802	4.137
344.302	4.119
344.802	4.102
345.302	4.085
345.802	4.067
346.302	4.049
346.802	4.031
347.302	4.013
347.802	3.994
348.302	3.975
348.802	3.956
349.302	3.937
349.802	3.917
350.302	3.897
350.802	3.877
351.302	3.856
351.802	3.835
352.302	3.813
352.802	3.79
353.302	3.767
353.802	3.743
354.302	3.717
354.802	3.69
355.302	3.661
355.802	3.63
356.302	3.595
356.802	3.556
357.302	3.512
357.802	3.46
