Uv/Vis Spectrum: Pentafluorophenyl isothiocyanate
Formula: C7F5NS
CAS: 35923-79-6
Boiling point: 72-73/3mm.
Instrument: SF -16
Origin: INSTITUTE OF ENERGY PROBLEMS OF CHEMICAL PHYSICS, RAS
Wavelength (nm)	Logarithm epsilon
211.27	3.718
211.8	3.718
212.34	3.713
212.88	3.713
214.48	3.692
216.09	3.687
217.7	3.677
219.31	3.677
220.92	3.667
222.53	3.661
224.14	3.656
225.75	3.646
227.36	3.631
228.97	3.626
230.58	3.605
232.19	3.595
233.8	3.569
235.41	3.544
237.02	3.508
238.63	3.477
240.24	3.446
241.85	3.415
243.45	3.385
245.06	3.349
246.67	3.313
248.28	3.282
249.89	3.246
251.5	3.21
253.11	3.169
254.72	3.138
256.33	3.113
257.94	3.087
259.55	3.067
261.16	3.061
262.77	3.061
264.38	3.072
265.99	3.077
267.6	3.087
269.21	3.092
270.82	3.092
272.42	3.097
274.03	3.092
275.64	3.082
277.25	3.061
278.86	3.02
280.47	2.964
282.08	2.902
283.69	2.826
285.3	2.641
286.91	2.502
288.52	2.343
290.13	2.154
291.74	2.031
