Uv/Vis Spectrum: 2-Propanone, 1,1,3,3-tetrafluoro-
Formula: C3H2F4O
CAS: 360-52-1
Instrument: Pye-Unicam SP 1800
Origin: INSTITUTE OF ENERGY PROBLEMS OF CHEMICAL PHYSICS, RAS
Wavelength (nm)	Logarithm epsilon
234.17	-0.78
235.28	-0.744
236.35	-0.708
237.24	-0.683
238.08	-0.657
238.75	-0.632
240.02	-0.594
241.22	-0.556
242.22	-0.518
243.42	-0.48
244.69	-0.439
245.76	-0.409
246.92	-0.383
247.36	-0.373
248.83	-0.34
250.33	-0.304
251.49	-0.269
252.66	-0.237
253.83	-0.179
255.12	-0.129
256.22	-0.082
257.38	-0.038
258.52	-0.003
259.7	0.041
260.86	0.079
262.08	0.114
263.28	0.16
264.38	0.196
265.53	0.24
266.69	0.279
267.85	0.324
269.03	0.365
270.07	0.402
271.12	0.443
272.02	0.48
272.93	0.514
273.84	0.546
274.77	0.58
275.69	0.608
276.63	0.638
277.41	0.666
278.2	0.692
279.15	0.717
279.95	0.74
280.75	0.763
281.56	0.784
282.37	0.807
283.19	0.826
284.01	0.847
284.83	0.864
285.66	0.884
286.67	0.897
287.51	0.913
288.35	0.93
289.21	0.947
290.06	0.963
290.92	0.978
291.79	0.991
292.66	1.006
293.54	1.02
294.42	1.031
295.31	1.043
296.2	1.056
297.1	1.068
298.18	1.079
299.1	1.089
300.2	1.098
301.3	1.108
302.23	1.117
303.54	1.124
304.87	1.131
306.01	1.139
307.35	1.145
308.9	1.152
310.47	1.157
312.05	1.16
313.85	1.162
315.47	1.165
317.31	1.165
318.55	1.158
319.38	1.148
320.42	1.138
321.26	1.127
322.11	1.116
322.75	1.105
323.6	1.094
324.67	1.083
325.75	1.071
326.84	1.059
327.93	1.046
329.03	1.033
330.14	1.02
331.03	1.006
331.93	0.991
332.83	0.976
333.51	0.961
334.42	0.945
335.11	0.928
335.8	0.911
336.49	0.893
337.24	0.876
337.89	0.852
338.35	0.829
338.82	0.804
339.52	0.778
340	0.75
340.71	0.724
341.66	0.696
342.37	0.666
343.33	0.633
344.14	0.604
345.27	0.556
346	0.514
346.74	0.468
347.47	0.416
348.21	0.357
349.11	0.284
349.96	0.196
350.96	0.091
352.47	-0.022
354.26	-0.153
356.32	-0.304
358.41	-0.429
