Uv/Vis Spectrum: 2-[[(pheylamino)carbonyl]amino]isoquinolinium, inner salt
Formula: C16H13N3O
CAS: 36159-99-6
Melting point: 152-154
Instrument: unknown
Origin: INSTITUTE OF ENERGY PROBLEMS OF CHEMICAL PHYSICS, RAS
Wavelength (nm)	Logarithm epsilon
217.334	4.42
218.521	4.433
219.721	4.446
220.935	4.456
222.162	4.462
223.403	4.464
224.658	4.462
225.926	4.456
227.21	4.448
228.508	4.438
229.821	4.428
231.149	4.42
232.492	4.416
233.851	4.415
235.227	4.42
236.618	4.428
238.026	4.439
239.367	4.449
240.809	4.457
242.267	4.464
243.743	4.467
245.238	4.466
246.75	4.459
248.282	4.445
249.833	4.422
251.403	4.391
252.993	4.351
254.603	4.303
256.234	4.251
257.886	4.196
259.56	4.145
261.255	4.103
262.502	4.071
264.233	4.053
265.549	4.037
267.323	4.015
269.122	4.003
270.945	3.998
272.793	3.998
274.666	4.002
276.565	4.008
278.49	4.014
280.443	4.019
282.423	4.019
284.431	4.015
286.468	4.005
288.535	3.986
290.631	3.958
292.758	3.92
294.917	3.872
297.107	3.815
299.33	3.751
301.587	3.683
303.878	3.616
306.068	3.574
308.428	3.554
310.825	3.552
313.259	3.563
315.732	3.582
318.244	3.607
320.796	3.636
323.389	3.669
326.025	3.704
328.704	3.738
331.428	3.772
334.197	3.801
337.013	3.824
339.876	3.837
342.789	3.835
345.944	3.819
348.962	3.82
352.033	3.826
355.158	3.84
358.34	3.859
361.579	3.88
364.878	3.899
368.237	3.914
371.658	3.922
375.144	3.924
378.695	3.917
382.315	3.903
386.004	3.88
389.766	3.844
393.601	3.79
397.512	3.706
401.091	3.622
405.153	3.534
409.299	3.435
413.53	3.323
417.85	3.198
422.261	3.063
426.766	2.914
429.691	2.805
432.05	2.72
