Uv/Vis Spectrum: Pentafluorobenzene
Formula: C6HF5
CAS: 363-72-4
Melting point: -48
Boiling point: 85
Instrument: Spectrophotometer SF-16
Origin: INSTITUTE OF ENERGY PROBLEMS OF CHEMICAL PHYSICS, RAS
Wavelength (nm)	Logarithm epsilon
230	2.24
231	2.15
232	2.14
233	2.1
234	2.09
235	2.08
236	2.08
237	2.08
238	2.09
239	2.1
240	2.10998
241	2.16
242	2.21
243	2.22
244	2.3
245	2.32
246	2.42
247	2.5
248	2.55
249	2.61
250	2.68
251	2.72
252	2.74
253	2.76
254	2.77
255	2.78
256	2.78
257	2.78
258	2.78
259	2.77
260	2.77
261	2.76
262	2.75
263	2.73
264	2.71
265	2.64
266	2.56
267	2.49
268	2.33
269	2.24
