Uv/Vis Spectrum: Bicyclo[2.2.2]octane,2,3-bis(methylene)-
Formula: C10H14
CAS: 36439-79-9
Boiling point: 39-41/ 4.5 mm
Instrument: Cary 12
Origin: INSTITUTE OF ENERGY PROBLEMS OF CHEMICAL PHYSICS, RAS
Wavelength (nm)	Logarithm epsilon
204.16	3.097
204.34	3.097
204.51	3.098
204.69	3.098
204.86	3.1
205.03	3.1
205.21	3.1
205.38	3.102
205.55	3.102
205.73	3.103
205.9	3.103
206.07	3.105
206.25	3.105
206.42	3.107
206.59	3.107
206.77	3.107
206.94	3.108
207.29	3.108
207.64	3.11
207.98	3.11
208.33	3.111
208.68	3.115
209.02	3.115
209.37	3.115
209.72	3.115
210.06	3.116
210.41	3.116
210.76	3.113
211.11	3.113
211.45	3.113
211.8	3.111
212.15	3.11
212.49	3.11
212.84	3.111
213.19	3.113
213.54	3.118
213.88	3.12
214.23	3.126
214.58	3.131
214.92	3.136
215.27	3.142
215.62	3.149
215.96	3.155
216.31	3.162
216.66	3.17
217.01	3.175
217.35	3.185
217.7	3.193
218.05	3.198
218.39	3.206
218.74	3.214
219.09	3.221
219.44	3.23
219.78	3.239
220.13	3.252
220.48	3.266
220.82	3.274
221.17	3.289
221.52	3.299
221.86	3.31
222.21	3.322
222.56	3.335
222.91	3.345
223.25	3.354
223.6	3.366
223.95	3.376
224.29	3.387
224.64	3.397
224.99	3.407
225.34	3.418
225.68	3.429
226.03	3.444
226.38	3.455
226.72	3.467
227.07	3.478
227.42	3.49
227.76	3.499
228.11	3.509
228.46	3.519
228.81	3.529
229.15	3.539
229.5	3.548
229.85	3.558
230.19	3.566
230.54	3.576
230.89	3.586
231.24	3.596
231.58	3.607
231.93	3.618
232.28	3.628
232.62	3.641
232.97	3.651
233.32	3.661
233.66	3.672
234.01	3.685
234.36	3.695
234.71	3.707
235.05	3.715
235.4	3.723
235.75	3.731
236.09	3.737
236.44	3.746
236.79	3.752
237.14	3.76
237.48	3.765
237.83	3.773
238.18	3.78
238.52	3.788
238.87	3.793
239.22	3.799
239.56	3.804
239.91	3.811
240.26	3.817
240.61	3.821
240.95	3.826
241.3	3.83
241.65	3.835
241.99	3.842
242.34	3.847
242.69	3.85
243.04	3.855
243.38	3.861
243.73	3.863
244.08	3.87
244.42	3.873
244.77	3.876
245.12	3.878
245.47	3.881
245.81	3.881
246.16	3.883
246.51	3.883
246.85	3.883
247.2	3.883
247.55	3.883
247.89	3.883
248.24	3.879
248.59	3.878
248.94	3.876
249.28	3.874
249.63	3.873
249.98	3.871
250.32	3.871
250.67	3.871
251.02	3.871
251.37	3.871
251.71	3.873
252.06	3.873
252.41	3.873
252.75	3.873
253.1	3.873
253.45	3.873
253.79	3.871
254.14	3.868
254.49	3.863
254.84	3.86
255.18	3.855
255.53	3.847
255.88	3.837
256.22	3.826
256.57	3.816
256.92	3.808
257.27	3.795
257.61	3.785
257.96	3.773
258.31	3.76
258.65	3.754
259	3.739
259.35	3.729
259.69	3.715
260.04	3.703
260.39	3.684
260.74	3.676
261.08	3.658
261.43	3.638
261.78	3.623
262.12	3.615
262.47	3.609
262.82	3.601
263.17	3.597
263.51	3.591
263.86	3.584
264.21	3.578
264.55	3.568
264.9	3.558
265.25	3.545
265.59	3.53
265.94	3.513
266.29	3.49
266.64	3.462
266.98	3.426
267.33	3.362
267.68	3.301
268.02	3.239
268.37	3.182
268.72	3.113
269.07	3.056
269.41	3.023
269.76	2.97
270.11	2.914
270.45	2.842
270.8	2.745
271.15	2.647
