Uv/Vis Spectrum: Bicyclo[2.2.1]heptane, 2,3-bis(methylene)-
Formula: C9H12
CAS: 36439-78-8
Boiling point: 52.5-54/ 25 mm; 76/ 74 mm
Instrument: Cary 12 UV
Origin: INSTITUTE OF ENERGY PROBLEMS OF CHEMICAL PHYSICS, RAS
Wavelength (nm)	Logarithm epsilon
204.538	3.11
205.538	3.105
206.538	3.106
207.538	3.116
208.538	3.131
209.538	3.148
210.538	3.164
211.538	3.176
212.538	3.181
213.515	3.18
214.515	3.188
215.515	3.195
216.515	3.202
217.515	3.212
218.515	3.226
219.515	3.244
220.515	3.267
221.515	3.294
222.515	3.327
223.515	3.363
224.515	3.401
225.515	3.44
226.515	3.477
227.515	3.51
228.515	3.536
228.603	3.541
229.603	3.564
230.603	3.59
231.603	3.617
232.603	3.645
233.603	3.671
234.603	3.694
235.603	3.715
236.603	3.731
237.603	3.744
238.603	3.753
239.603	3.76
240.603	3.763
241.603	3.766
242.603	3.769
243.595	3.773
244.595	3.789
245.595	3.798
246.595	3.796
247.595	3.786
248.595	3.767
249.595	3.742
250.595	3.715
261.532	3.196
262.532	3.07
263.532	2.951
264.532	2.838
265.367	2.752
