Uv/Vis Spectrum: Bicyclo[2.2.2]oct-2-ene,5,6-bis(methylene)-
Formula: C10H12
CAS: 36528-62-8
Boiling point: 162/ 760 mm
Instrument: Cary 12
Origin: INSTITUTE OF ENERGY PROBLEMS OF CHEMICAL PHYSICS, RAS
Wavelength (nm)	Logarithm epsilon
204.34	3.465
204.51	3.462
204.68	3.46
204.86	3.457
205.03	3.453
205.2	3.45
205.38	3.447
205.55	3.444
205.72	3.44
206.07	3.439
206.59	3.439
207.11	3.44
207.63	3.442
208.15	3.444
208.67	3.449
209.19	3.452
209.71	3.453
210.24	3.457
210.76	3.458
211.28	3.462
211.8	3.465
212.32	3.465
212.84	3.468
213.36	3.47
213.88	3.471
214.4	3.471
214.92	3.475
215.44	3.479
215.96	3.492
216.48	3.507
217	3.52
217.52	3.528
218.04	3.527
218.56	3.525
219.08	3.523
219.6	3.52
220.12	3.519
220.64	3.519
221.16	3.523
221.68	3.53
222.2	3.536
222.73	3.545
223.25	3.551
223.77	3.562
224.29	3.571
224.81	3.577
225.33	3.584
225.85	3.588
226.37	3.588
226.89	3.588
227.41	3.588
227.93	3.588
228.45	3.592
228.97	3.597
229.49	3.6
230.01	3.608
230.53	3.618
231.05	3.639
231.57	3.657
232.09	3.667
232.61	3.673
233.13	3.684
233.65	3.699
234.17	3.707
234.7	3.719
235.22	3.723
235.74	3.732
236.26	3.741
236.78	3.751
237.3	3.761
237.82	3.769
238.34	3.779
238.86	3.789
239.38	3.798
239.9	3.802
240.42	3.808
240.94	3.816
241.46	3.824
241.98	3.831
242.5	3.836
243.02	3.842
243.54	3.847
244.06	3.854
244.58	3.855
245.1	3.857
245.62	3.857
246.14	3.857
246.66	3.858
247.19	3.857
247.71	3.857
248.23	3.855
248.75	3.857
249.27	3.858
249.79	3.863
250.31	3.87
250.83	3.873
251.35	3.876
251.87	3.878
252.39	3.878
252.91	3.878
253.43	3.875
253.95	3.87
254.47	3.855
254.99	3.839
255.51	3.824
256.03	3.808
256.55	3.792
257.07	3.777
257.59	3.754
258.11	3.733
258.63	3.719
259.16	3.696
259.68	3.684
260.2	3.675
260.72	3.663
261.24	3.654
261.76	3.642
262.28	3.631
262.8	3.621
263.32	3.61
263.84	3.608
264.36	3.59
264.88	3.575
265.4	3.558
265.92	3.54
266.44	3.52
266.96	3.499
267.48	3.447
268	3.38
268.52	3.294
269.04	3.196
269.56	3.099
270.08	3.011
270.35	2.972
270.6	2.943
270.78	2.918
270.93	2.901
271.05	2.884
271.21	2.868
271.32	2.849
271.46	2.826
271.61	2.791
271.76	2.745
271.87	2.697
