Uv/Vis Spectrum: [1,1'-Biphenyl]-4,4'-diamine, N,N,N',N'-tetramethyl-
Formula: C16H20N2
CAS: 366-29-0
Melting point: 192
Instrument: Spektromom 201
Origin: INSTITUTE OF ENERGY PROBLEMS OF CHEMICAL PHYSICS, RAS
Wavelength (nm)	Logarithm epsilon
204.26	4.554
205.62	4.571
207.15	4.578
208.68	4.584
210.21	4.578
211.57	4.567
212.6	4.547
213.62	4.526
214.47	4.499
215.15	4.472
215.83	4.445
216.34	4.417
217.02	4.39
217.53	4.363
218.04	4.336
218.89	4.308
219.4	4.281
220.09	4.254
220.77	4.227
221.45	4.199
221.96	4.172
222.81	4.145
223.32	4.118
224	4.09
224.68	4.063
225.36	4.036
226.04	4.009
226.72	3.981
227.23	3.954
228.09	3.93
228.6	3.903
229.45	3.876
230.3	3.849
230.98	3.821
232	3.797
232.85	3.77
234.04	3.753
235.23	3.733
236.6	3.716
237.96	3.699
239.32	3.685
240.85	3.678
242.38	3.675
243.91	3.675
245.45	3.678
246.98	3.682
248.51	3.682
249.87	3.692
251.4	3.692
252.94	3.695
254.47	3.699
255.83	3.709
257.19	3.723
258.55	3.733
259.91	3.746
261.11	3.763
262.3	3.78
263.49	3.801
264.51	3.821
265.53	3.842
266.55	3.862
267.57	3.883
268.43	3.907
269.45	3.93
270.47	3.954
271.32	3.978
272.34	4.002
273.19	4.029
274.04	4.056
274.89	4.08
275.74	4.107
276.6	4.131
277.45	4.159
278.47	4.182
279.32	4.21
280.34	4.234
281.19	4.257
282.38	4.278
283.23	4.305
284.43	4.326
285.62	4.346
286.64	4.366
287.83	4.383
288.85	4.404
290.04	4.421
291.23	4.438
292.6	4.455
293.79	4.472
295.15	4.486
296.51	4.499
297.87	4.516
299.23	4.526
300.77	4.533
302.13	4.547
303.66	4.55
305.19	4.55
306.72	4.557
308.26	4.554
309.79	4.55
311.32	4.547
312.68	4.537
314.21	4.53
315.57	4.516
316.94	4.503
318.3	4.492
319.49	4.475
320.68	4.458
321.87	4.441
322.89	4.421
324.09	4.4
325.28	4.38
326.47	4.36
327.49	4.336
328.51	4.315
329.36	4.291
330.38	4.268
331.23	4.244
332.26	4.22
333.11	4.196
333.96	4.169
334.64	4.142
335.49	4.118
336	4.09
336.85	4.063
337.53	4.036
338.04	4.009
338.89	3.981
339.4	3.951
339.91	3.924
340.43	3.896
341.11	3.869
341.62	3.842
342.13	3.815
342.64	3.787
343.15	3.76
343.83	3.733
344.17	3.702
344.68	3.671
345.19	3.641
345.7	3.614
346.04	3.583
346.55	3.556
346.89	3.525
347.4	3.498
347.91	3.467
348.26	3.436
348.6	3.406
349.11	3.378
349.45	3.348
349.96	3.321
350.13	3.29
350.64	3.259
350.98	3.229
351.32	3.198
351.83	3.167
352.17	3.137
352.51	3.106
353.02	3.075
353.36	3.045
353.7	3.014
354.04	2.983
354.55	2.953
354.89	2.922
355.23	2.891
355.57	2.861
355.91	2.83
356.43	2.799
356.77	2.769
357.11	2.738
357.45	2.707
357.79	2.677
358.13	2.646
358.47	2.615
358.64	2.585
358.98	2.554
359.49	2.523
359.83	2.493
360	2.462
360.51	2.435
360.68	2.404
361.19	2.374
361.36	2.343
361.87	2.312
362.21	2.282
362.55	2.251
362.89	2.22
363.06	2.19
363.4	2.159
363.74	2.128
364.09	2.098
364.43	2.067
364.94	2.036
365.11	2.006
365.62	1.975
365.96	1.944
366.13	1.914
366.47	1.883
366.81	1.852
367.32	1.825
367.66	1.794
368.17	1.764
368.51	1.733
369.02	1.706
369.53	1.679
370.04	1.651
370.55	1.624
371.06	1.593
371.57	1.566
372.09	1.539
372.6	1.512
373.28	1.484
373.96	1.457
374.47	1.43
375.32	1.406
376	1.379
376.85	1.355
377.53	1.328
378.55	1.304
379.4	1.277
380.43	1.256
381.11	1.229
382.3	1.209
383.32	1.188
384.34	1.164
385.53	1.144
386.72	1.123
387.91	1.106
389.28	1.089
390.64	1.072
392	1.059
393.36	1.048
394.89	1.038
396.26	1.025
397.62	1.014
