Uv/Vis Spectrum: 2,2'-Bipyridine
Formula: C10H8N2
CAS: 366-18-7
Melting point: 72
Boiling point: 273.5
Instrument: Beckman DU
Origin: INSTITUTE OF ENERGY PROBLEMS OF CHEMICAL PHYSICS, RAS
Wavelength (nm)	Logarithm epsilon
211.511	3.80667
212.016	3.79347
212.168	3.79346
213.38	3.75995
213.885	3.74979
215.047	3.71527
215.198	3.71223
215.552	3.70511
216.057	3.68887
216.41	3.67872
216.916	3.66856
217.572	3.64825
218.078	3.63809
218.733	3.61373
219.088	3.60764
219.239	3.60357
219.744	3.59341
220.249	3.57717
220.603	3.57006
221.261	3.55989
221.767	3.55277
222.476	3.54969
223.792	3.54253
225.313	3.54651
225.821	3.55257
226.176	3.5566
226.684	3.56266
227.039	3.56974
227.344	3.57681
227.851	3.57983
228.055	3.58996
228.562	3.59297
228.715	3.60006
229.579	3.61725
230.087	3.62736
230.392	3.63342
230.595	3.64051
230.9	3.64353
231.104	3.65366
231.611	3.65769
232.12	3.67084
232.273	3.67793
232.781	3.68804
233.441	3.70422
233.797	3.70825
233.95	3.71838
234.305	3.72141
234.458	3.72849
235.474	3.74871
235.678	3.75479
236.186	3.7649
236.49	3.76893
237.506	3.7851
238.013	3.78913
238.369	3.79519
239.535	3.79919
240.397	3.80523
242.273	3.80919
244.096	3.79896
245.462	3.77862
245.613	3.77861
246.119	3.7644
246.472	3.7583
246.978	3.74814
247.13	3.74408
247.837	3.73087
248.141	3.72376
248.494	3.71056
248.847	3.70345
249.152	3.70343
250.162	3.67703
250.364	3.67702
250.87	3.66686
251.527	3.6496
252.184	3.63639
252.387	3.63638
255.216	3.57137
255.722	3.55817
256.732	3.5348
256.935	3.53479
257.238	3.52464
257.44	3.52463
257.743	3.51043
258.096	3.50027
258.602	3.49011
258.954	3.47388
259.106	3.46982
259.458	3.44953
259.762	3.44343
260.114	3.42618
260.266	3.42618
260.619	3.41298
260.771	3.41297
261.124	3.39877
261.276	3.39876
261.984	3.38859
263.657	3.3885
264.164	3.39253
264.672	3.39859
265.331	3.40261
265.534	3.40868
266.042	3.41575
267.057	3.42888
267.717	3.43898
268.073	3.44606
268.58	3.44907
268.733	3.45616
269.088	3.45918
269.901	3.47637
270.408	3.47939
270.612	3.48647
270.917	3.49355
271.272	3.49657
271.425	3.50366
271.933	3.50972
272.136	3.5168
272.441	3.52388
272.949	3.53399
273.458	3.55018
274.169	3.56434
274.322	3.57447
274.678	3.57749
274.831	3.58762
275.847	3.61088
276.001	3.62101
276.356	3.62504
276.51	3.63821
276.865	3.64123
277.375	3.66553
277.73	3.66856
277.883	3.67869
278.543	3.69183
278.747	3.70195
279.052	3.70599
279.256	3.71916
279.561	3.72218
279.918	3.7394
280.273	3.74647
280.426	3.75255
280.782	3.76267
280.935	3.77279
281.291	3.77987
281.444	3.79
281.952	3.80011
282.106	3.81024
282.461	3.81326
282.615	3.82744
282.97	3.83046
283.123	3.84059
283.478	3.84362
283.835	3.85779
283.988	3.86386
284.343	3.87094
284.496	3.87803
284.851	3.88409
285.005	3.89118
285.36	3.8942
285.513	3.90433
285.868	3.90836
286.021	3.91849
291.966	4.03982
292.27	4.04285
292.474	4.04993
292.981	4.05295
293.134	4.06004
293.489	4.06306
294.149	4.07316
294.657	4.08023
295.164	4.08325
296.027	4.09638
296.687	4.1004
297.347	4.1105
298.057	4.11351
298.717	4.12361
299.731	4.1266
300.593	4.13365
304.292	4.13043
305.305	4.12328
306.166	4.1202
306.975	4.11002
307.482	4.10594
307.836	4.10288
308.342	4.09272
309	4.08559
309.354	4.08254
309.86	4.07947
310.366	4.07235
310.721	4.06929
311.378	4.06216
312.542	4.04893
313.048	4.04181
313.554	4.03165
314.566	4.01842
317.595	3.92705
317.948	3.91284
318.1	3.90979
318.452	3.89255
318.604	3.8895
318.956	3.86617
319.107	3.86211
319.459	3.83878
319.611	3.83573
319.962	3.80834
320.114	3.8053
320.464	3.77082
320.616	3.76777
320.966	3.73025
321.118	3.7272
321.467	3.68664
321.619	3.68663
321.969	3.64607
322.12	3.64303
322.471	3.60551
322.622	3.60246
322.971	3.5548
323.123	3.55175
323.472	3.50714
323.623	3.50409
323.973	3.46049
324.124	3.45643
324.474	3.41587
324.626	3.41282
324.974	3.36517
325.126	3.36212
325.475	3.31852
325.627	3.31446
325.976	3.26782
326.127	3.26375
326.476	3.21306
326.627	3.21001
326.976	3.16235
327.128	3.15931
327.477	3.11165
328.977	2.94941
329.327	2.91594
329.479	2.91289
329.828	2.86828
329.98	2.86523
330.328	2.81149
330.48	2.81149
330.828	2.76079
330.98	2.75673
331.328	2.70603
331.48	2.70298
331.828	2.64925
331.979	2.64519
332.327	2.58436
332.478	2.58131
332.826	2.52352
332.977	2.52047
333.325	2.46268
333.476	2.45963
333.825	2.40589
333.976	2.40183
334.323	2.33796
334.475	2.33795
334.823	2.28422
334.974	2.28016
335.321	2.21628
335.473	2.21324
335.82	2.15544
335.972	2.1524
336.32	2.09765
336.472	2.0946
336.617	2.04087
336.818	2.03073
336.97	2.03072
337.616	1.92933
337.962	1.85127
338.113	1.84822
338.458	1.77016
338.61	1.76711
338.956	1.69918
339.108	1.69614
339.453	1.62112
339.605	1.61807
339.947	1.51974
