Uv/Vis Spectrum: phenyl(5-phenyl-3-isoxazolyl)methanone
Formula: C16H11NO2
CAS: 3672-49-9
Melting point: 87-88
Instrument: SF-4
Origin: INSTITUTE OF ENERGY PROBLEMS OF CHEMICAL PHYSICS, RAS
Wavelength (nm)	Logarithm epsilon
217.35	4.209
219.35	4.153
221.35	4.106
223.35	4.07
225.35	4.045
227.35	4.029
229.35	4.023
231.35	4.026
233.35	4.036
235.35	4.053
237.35	4.074
239.35	4.101
241.35	4.13
243.35	4.162
245.35	4.195
247.35	4.23
249.35	4.264
251.239	4.295
253.239	4.322
255.239	4.35
257.239	4.378
259.239	4.403
261.239	4.424
263.239	4.439
265.239	4.447
267.239	4.447
269.239	4.438
271.239	4.42
273.239	4.394
275.239	4.361
277.239	4.321
279.239	4.277
281.239	4.232
283.347	4.18
285.347	4.127
287.347	4.074
289.347	4.022
291.347	3.97
293.347	3.915
295.347	3.86
297.347	3.802
299.347	3.742
301.347	3.68
303.347	3.616
305.347	3.553
307.347	3.489
309.347	3.427
