Uv/Vis Spectrum: 1,2,4-Trifluorobenzene
Formula: C6H3F3
CAS: 367-23-7
Boiling point: 90
Instrument: McPherson model 225 monochromator
Origin: INSTITUTE OF ENERGY PROBLEMS OF CHEMICAL PHYSICS, RAS
Wavelength (nm)	Logarithm epsilon
205.249	3.44702
204.998	3.4763
204.712	3.52816
204.458	3.57449
203.689	3.61615
203.442	3.6362
203.198	3.64528
202.922	3.66405
202.68	3.67257
202.169	3.68083
201.424	3.68988
201.185	3.69791
200.712	3.70571
200.442	3.72209
198.755	3.72908
197.327	3.72106
196.875	3.71322
196.178	3.68801
195.702	3.68783
195.009	3.67822
194.568	3.66955
193.631	3.67769
192.948	3.68681
192.296	3.69473
191.836	3.70258
191.374	3.72659
191.159	3.7349
190.7	3.75723
190.486	3.76411
190.27	3.77763
189.82	3.78496
189.608	3.79142
189.394	3.80491
189.154	3.81723
188.943	3.82399
188.733	3.8299
188.493	3.84799
188.284	3.85358
188.075	3.85911
187.837	3.87604
187.625	3.89235
187.183	3.90801
186.974	3.91836
186.766	3.92788
186.331	3.93773
186.124	3.94741
185.92	3.95187
185.687	3.96559
185.48	3.97891
185.273	3.99182
184.846	3.9958
184.444	4.00424
184.197	4.05075
183.978	4.08623
183.762	4.11597
183.525	4.14091
183.314	4.16141
183.098	4.18916
182.862	4.21002
182.653	4.22755
182.43	4.26094
182.196	4.27868
181.99	4.29165
181.761	4.3282
181.527	4.36754
181.285	4.39014
181.063	4.41472
180.827	4.45007
180.593	4.46456
180.391	4.47306
180.181	4.48682
179.957	4.4949
179.74	4.5131
179.536	4.52327
179.307	4.53438
179.108	4.54163
178.913	4.54634
178.706	4.5591
178.487	4.56486
178.291	4.57041
178.098	4.57482
177.882	4.57932
177.694	4.58142
177.508	4.58259
177.3	4.58363
176.932	4.58465
176.361	4.58566
176.176	4.58786
175.969	4.59004
175.784	4.59209
175.597	4.59641
175.393	4.59742
175.213	4.59741
175.036	4.59638
174.843	4.59203
174.67	4.5888
174.498	4.58555
174.328	4.58123
174.136	4.57686
173.968	4.57123
173.795	4.56906
173.255	4.56331
173.062	4.56111
172.891	4.55875
172.722	4.55526
172.536	4.54949
172.378	4.53874
172.214	4.5326
172.057	4.52157
171.876	4.51256
171.712	4.50619
171.546	4.50226
171.355	4.50098
171.185	4.49954
171.014	4.49953
170.832	4.49296
170.686	4.47385
170.529	4.46379
170.348	4.45525
170.188	4.44779
170.024	4.44329
169.87	4.43119
169.689	4.4233
169.529	4.417
169.371	4.40728
169.199	4.3923
169.044	4.38034
168.891	4.36632
168.715	4.35539
168.562	4.34052
168.412	4.323
168.259	4.30894
168.085	4.2944
167.934	4.27699
167.777	4.26814
167.607	4.24736
167.45	4.23787
167.292	4.23054
167.115	4.22068
166.959	4.21028
166.803	4.19994
166.628	4.18935
166.472	4.1785
166.319	4.16429
166.161	4.15873
165.836	4.1288
165.684	4.11284
165.513	4.09666
165.361	4.07944
165.207	4.06884
165.033	4.05798
164.879	4.04684
164.725	4.03541
164.551	4.02791
164.396	4.01981
164.242	4.01204
164.089	3.99964
163.916	3.99098
163.764	3.97796
163.611	3.96886
163.44	3.95569
163.288	3.94611
163.136	3.9363
162.964	3.92686
162.811	3.92145
162.66	3.91168
162.49	3.90106
162.187	3.88492
162.037	3.87429
161.866	3.86816
161.716	3.85711
161.564	3.85705
161.394	3.85068
161.246	3.83916
161.099	3.82056
160.93	3.81439
160.782	3.80107
160.635	3.78732
160.486	3.78066
160.32	3.76623
160.025	3.74498
159.857	3.7449
159.397	3.72151
159.103	3.7127
158.939	3.70478
158.65	3.67068
158.34	3.66075
158.196	3.65182
158.05	3.65173
157.742	3.6425
157.436	3.63307
156.395	3.62175
156.109	3.63221
155.948	3.64136
155.503	3.65902
154.921	3.66845
154.64	3.67679
153.774	3.66773
151.651	3.64762
151.518	3.63841
151.386	3.629
151.103	3.61806
150.688	3.61776
150.146	3.59756
149.998	3.59745
149.739	3.57516
149.334	3.55153
149.204	3.55142
148.931	3.52804
148.803	3.51434
146.814	3.48705
146.563	3.48678
146.175	3.45765
146.036	3.44328
143.126	3.40771
143.007	3.40755
141.415	3.38938
141.168	3.37234
140.805	3.38852
140.328	3.40395
140.097	3.42109
139.854	3.42076
139.614	3.38681
139.386	3.40264
139.144	3.41981
138.567	3.43404
138.091	3.44795
137.522	3.46303
137.177	3.4762
136.943	3.48911
136.492	3.5014
136.273	3.51515
136.15	3.52709
135.933	3.53861
135.703	3.55123
135.367	3.56201
134.927	3.57242
134.267	3.56086
134.16	3.58357
134.041	3.59379
133.83	3.60369
133.607	3.61457
133.5	3.64275
133.395	3.65281
133.17	3.68795
132.845	3.70483
132.739	3.7288
132.623	3.73614
132.199	3.75033
132.098	3.74307
131.884	3.72817
131.782	3.7281
131.572	3.69483
131.471	3.69475
131.258	3.6864
131.058	3.6779
130.747	3.66806
130.434	3.68572
130.333	3.69383
130.221	3.70277
130.119	3.72685
129.614	3.72647
129.505	3.71783
129.313	3.69299
128.405	3.69222
128.01	3.68366
127.808	3.67509
127.607	3.66527
127.028	3.65598
126.829	3.64684
126.629	3.6556
126.244	3.66401
124.999	3.67253
124.623	3.68891
124.429	3.69788
124.338	3.70576
124.146	3.71342
123.965	3.72191
123.685	3.72921
123.595	3.73656
123.493	3.74377
123.404	3.75176
123.214	3.75865
123.036	3.76545
122.936	3.77304
122.67	3.78616
122.483	3.79334
122.296	3.79961
122.119	3.81892
121.934	3.82484
121.662	3.83061
121.575	3.83717
121.391	3.84284
121.305	3.8485
121.036	3.85467
120.683	3.86001
120.24	3.85415
119.714	3.85937
