Uv/Vis Spectrum: p-Fluoroaniline
Formula: C6H6FN
CAS: 371-40-4
Boiling point: 181.5
Instrument: Unicam SP 800 B
Origin: INSTITUTE OF ENERGY PROBLEMS OF CHEMICAL PHYSICS, RAS
Wavelength (nm)	Logarithm epsilon
201.03	3.343
201.2	3.374
201.71	3.404
202.05	3.435
202.22	3.466
202.74	3.496
203.42	3.523
204.62	3.54
205.99	3.551
207.53	3.54
209.07	3.53
209.93	3.506
210.95	3.483
212.15	3.462
213.69	3.452
215.06	3.466
216.09	3.486
217.12	3.51
218.14	3.53
219.17	3.551
220.2	3.574
221.05	3.598
222.08	3.619
223.11	3.642
223.96	3.666
224.99	3.687
226.02	3.71
226.87	3.734
228.07	3.755
229.27	3.772
230.64	3.785
232.18	3.789
233.72	3.785
235.26	3.782
236.63	3.765
237.65	3.741
238.68	3.717
239.54	3.693
240.39	3.67
241.25	3.642
241.93	3.615
242.79	3.591
243.3	3.564
244.16	3.537
244.67	3.506
245.18	3.479
245.7	3.452
246.21	3.425
246.72	3.397
247.24	3.367
247.58	3.336
248.09	3.309
248.44	3.278
248.95	3.248
249.46	3.221
249.98	3.193
250.49	3.163
251	3.132
251.52	3.105
251.86	3.074
252.37	3.047
252.89	3.02
253.4	2.993
253.91	2.965
254.43	2.938
254.94	2.911
255.45	2.884
256.14	2.856
256.48	2.826
257.16	2.799
258.02	2.771
258.71	2.744
259.73	2.72
261.1	2.703
262.3	2.683
263.84	2.693
264.87	2.714
265.89	2.734
266.92	2.754
267.95	2.778
268.97	2.802
270	2.826
271.03	2.85
272.05	2.873
272.91	2.897
273.94	2.921
274.96	2.945
275.82	2.972
276.68	2.999
277.53	3.023
278.39	3.05
279.24	3.078
280.1	3.105
280.95	3.132
281.98	3.156
282.84	3.18
283.86	3.2
285.06	3.221
286.26	3.241
287.29	3.261
288.66	3.272
290.03	3.285
291.4	3.299
292.94	3.302
294.48	3.306
296.02	3.309
297.56	3.302
299.1	3.299
300.64	3.292
302.01	3.275
303.38	3.261
304.74	3.244
305.94	3.227
307.14	3.207
308	3.183
308.85	3.159
309.88	3.135
310.91	3.115
311.76	3.091
312.79	3.067
313.82	3.047
314.67	3.023
315.53	2.999
316.55	2.979
317.41	2.955
318.27	2.928
319.12	2.904
319.81	2.877
320.83	2.853
321.35	2.826
322.2	2.799
322.72	2.771
323.4	2.744
324.26	2.717
324.77	2.69
325.45	2.663
325.97	2.635
326.48	2.608
326.99	2.577
327.51	2.547
327.85	2.516
328.36	2.489
328.88	2.462
329.22	2.431
329.56	2.401
329.9	2.37
330.42	2.339
330.76	2.309
331.1	2.278
331.62	2.247
331.96	2.217
332.47	2.19
332.81	2.159
332.98	2.128
333.33	2.098
333.67	2.067
334.01	2.037
334.53	2.009
334.87	1.979
335.38	1.948
335.55	1.917
336.07	1.89
336.58	1.863
337.09	1.832
337.43	1.802
338.12	1.775
338.63	1.747
339.15	1.717
339.49	1.686
340.17	1.659
340.69	1.632
341.2	1.604
341.88	1.577
342.57	1.55
343.43	1.526
344.28	1.499
344.97	1.472
345.65	1.444
346.33	1.417
