Uv/Vis Spectrum: Phenol, 4-fluoro-
Formula: C6H5FO
CAS: 371-41-5
Melting point: 48
Boiling point: 185.5
Instrument: Unicam SP 500 or Beckman DU
Origin: INSTITUTE OF ENERGY PROBLEMS OF CHEMICAL PHYSICS, RAS
Wavelength (nm)	Logarithm epsilon
200.311	3.13069
200.335	3.13343
200.529	3.15238
200.581	3.1549
200.871	3.18022
200.986	3.1891
201.255	3.21109
201.341	3.21937
201.65	3.23888
201.65	3.24154
202.334	3.29148
202.397	3.29899
202.728	3.31643
202.811	3.32416
203.372	3.36006
203.486	3.36648
203.807	3.3822
203.807	3.38425
204.108	3.40256
204.132	3.40504
204.409	3.41928
204.516	3.42578
204.834	3.43997
204.897	3.44532
205.177	3.45596
205.177	3.45769
205.83	3.48804
205.913	3.49157
206.131	3.50054
206.238	3.50594
206.474	3.51449
206.526	3.51818
206.816	3.52786
206.878	3.53224
207.169	3.542
207.169	3.54342
207.418	3.55256
207.48	3.55607
207.677	3.56544
207.792	3.56849
208.113	3.577
208.165	3.5802
208.455	3.58861
208.57	3.59184
208.798	3.59811
208.912	3.60183
209.192	3.60973
209.327	3.61247
209.835	3.62018
209.887	3.62237
210.478	3.6268
210.676	3.62704
211.391	3.62637
211.619	3.62457
212.252	3.61835
212.311	3.61596
212.595	3.60928
212.708	3.60555
212.937	3.59913
213.058	3.5953
213.279	3.58861
213.372	3.58633
213.715	3.57795
213.774	3.57394
213.974	3.56703
214.033	3.56291
214.317	3.5547
214.376	3.55046
214.659	3.54097
214.742	3.5363
215.001	3.52453
215.094	3.52048
215.437	3.50868
215.496	3.50561
215.779	3.49455
215.901	3.48979
216.215	3.47756
216.298	3.47305
216.641	3.45722
216.7	3.45455
216.983	3.44273
217.045	3.43915
217.336	3.42623
217.336	3.42808
217.678	3.40926
217.737	3.40522
218.964	3.32437
218.964	3.32782
219.659	3.27986
219.659	3.28245
220.261	3.22574
220.261	3.22868
220.438	3.21219
220.497	3.20674
220.603	3.19364
220.603	3.19658
220.863	3.17665
220.922	3.16646
221.464	3.11237
221.586	3.09866
221.9	3.06715
221.959	3.05951
222.844	2.95456
222.844	2.96003
223.104	2.92891
223.163	2.92466
223.539	2.87794
223.599	2.87317
226.206	2.5774
226.236	2.56663
227.243	2.4641
227.419	2.44687
230.604	2.13738
230.746	2.12758
231.372	2.0779
231.517	2.06664
233.789	1.97229
234.08	1.97229
234.91	1.93224
235.138	1.93224
236.207	1.97229
236.313	1.97229
237.15	1.93224
237.441	1.93224
243.095	2.0779
243.209	2.0779
243.956	2.13738
244.125	2.13738
246.197	2.21228
246.488	2.22593
247.4	2.27615
247.691	2.27615
248.874	2.34822
249.043	2.34822
249.818	2.39582
249.932	2.39582
251.021	2.43872
251.136	2.43872
254.216	2.59599
254.445	2.60168
258.387	2.81747
258.418	2.8229
259.985	2.89255
260.064	2.90319
260.762	2.93364
260.762	2.93899
261.489	2.97689
261.575	2.98347
262.225	3.01449
262.394	3.02268
262.827	3.04749
263.028	3.06066
263.688	3.09035
263.75	3.09542
264.808	3.14312
264.978	3.14967
265.587	3.17545
265.639	3.17784
266.23	3.19478
266.254	3.19878
266.572	3.21109
266.604	3.21338
268.606	3.25985
268.712	3.26647
268.948	3.27986
269	3.28501
269.29	3.30279
269.342	3.30879
269.726	3.32352
269.778	3.32649
271.272	3.32095
271.574	3.32197
271.873	3.34003
271.936	3.34675
272.05	3.3583
272.102	3.36591
272.309	3.38071
272.309	3.3848
272.61	3.3981
272.808	3.4015
273.43	3.40185
273.513	3.39833
273.855	3.38683
273.923	3.38171
274.591	3.37903
274.675	3.38109
274.975	3.39141
274.975	3.39328
275.069	3.39738
275.069	3.39936
275.235	3.40996
275.287	3.41418
275.494	3.42353
275.494	3.42724
275.753	3.43735
275.806	3.44002
276.231	3.45011
276.366	3.45048
276.791	3.44143
276.822	3.43998
277.05	3.42908
277.115	3.42484
277.818	3.43174
277.88	3.43543
278.077	3.44804
278.077	3.4498
278.337	3.46374
278.337	3.46625
278.513	3.47815
278.62	3.48349
278.938	3.4934
279.26	3.49258
279.416	3.49225
279.446	3.48906
279.54	3.48128
279.602	3.47715
279.716	3.4662
279.776	3.46112
279.893	3.44402
279.893	3.45016
279.976	3.43324
279.976	3.43593
280.152	3.41499
280.152	3.41963
280.235	3.40627
280.294	3.40238
280.411	3.3822
280.411	3.38927
280.495	3.3728
280.525	3.36803
280.661	3.35514
280.723	3.34735
280.837	3.33487
280.92	3.32966
281.356	3.31186
281.448	3.3088
282.217	3.30458
282.331	3.30458
282.735	3.29513
282.795	3.28757
283.379	3.27797
283.576	3.28432
284.063	3.3019
284.095	3.30614
284.281	3.31902
284.343	3.32734
284.457	3.34166
284.51	3.35062
284.717	3.36493
284.769	3.37128
284.924	3.3861
284.956	3.38867
285.236	3.40327
285.396	3.40857
286.003	3.40768
286.066	3.40079
286.263	3.38683
286.325	3.38165
286.439	3.36975
286.498	3.36207
286.522	3.3583
286.584	3.34111
286.698	3.31556
286.698	3.32379
286.781	3.29148
286.781	3.30017
286.864	3.27797
286.927	3.26992
287.041	3.25164
287.072	3.24378
287.124	3.2236
287.186	3.21447
287.217	3.20999
287.276	3.18961
287.3	3.163
287.3	3.16637
287.476	3.13201
287.476	3.13933
287.56	3.11548
287.619	3.1016
287.642	3.07135
287.642	3.07965
287.819	3.03731
287.85	3.02913
287.985	2.99406
288.047	2.97845
288.161	2.94193
288.22	2.92748
288.337	2.89255
288.421	2.87797
288.68	2.83092
288.739	2.81217
288.939	2.75985
289.053	2.73744
289.365	2.67388
289.486	2.64947
289.8	2.56658
289.976	2.53148
