Uv/Vis Spectrum: 2-Fluoropyridine
Formula: C5H4FN
CAS: 372-48-5
Boiling point: 125
Instrument: Beckman spectrophotometer
Origin: INSTITUTE OF ENERGY PROBLEMS OF CHEMICAL PHYSICS, RAS
Wavelength (nm)	Logarithm epsilon
271.042	2.15635
270.453	2.27162
269.82	2.384
269.82	2.384
269.568	2.45432
269.329	2.51493
269.103	2.56821
268.889	2.61575
268.686	2.65867
268.495	2.69779
268.314	2.73373
268.143	2.76698
267.981	2.79791
267.829	2.82682
267.686	2.85397
267.551	2.87955
267.423	2.90374
267.303	2.92669
267.189	2.9485
267.082	2.9693
266.981	2.98917
266.885	3.00818
266.794	3.02642
266.707	3.04393
266.625	3.06079
266.546	3.07702
266.534	3.07886
266.534	3.07651
266.533	3.0741
266.533	3.07158
266.47	3.09268
266.397	3.10781
266.326	3.12243
266.257	3.13659
266.19	3.1503
266.123	3.1636
266.093	3.1778
266.093	3.17663
266.092	3.17538
266.092	3.17408
266.057	3.17652
265.991	3.18906
265.987	3.20215
265.986	3.20038
265.986	3.19858
265.985	3.19668
265.924	3.20125
265.866	3.21477
265.865	3.21358
265.865	3.21238
265.864	3.21118
265.856	3.21311
265.788	3.22466
265.759	3.2354
265.758	3.23262
265.757	3.22979
265.756	3.22687
265.717	3.23591
265.645	3.24688
265.569	3.25757
265.491	3.26801
265.409	3.2782
265.324	3.28816
265.234	3.29789
265.139	3.3074
265.139	3.3074
265.083	3.30933
265.024	3.31125
264.96	3.31316
264.96	3.31316
264.866	3.31316
264.768	3.31317
264.667	3.31317
264.667	3.31317
264.539	3.3047
264.349	3.29299
264.107	3.27959
263.825	3.2662
263.513	3.25473
263.182	3.24727
263.182	3.24727
262.889	3.24853
262.711	3.2498
262.494	3.25219
262.494	3.25219
262.302	3.2628
262.12	3.2732
261.946	3.28342
261.78	3.29345
261.622	3.3033
261.47	3.31296
261.326	3.32245
261.188	3.33176
261.055	3.3409
260.928	3.34986
260.807	3.35866
260.69	3.36729
260.577	3.37576
260.467	3.38407
260.361	3.39222
260.259	3.40022
260.158	3.40806
260.06	3.41576
259.963	3.4233
259.868	3.4307
259.774	3.43795
259.68	3.44506
259.587	3.45203
259.493	3.45885
259.398	3.46555
259.398	3.46555
259.136	3.46931
258.834	3.47445
258.573	3.47783
258.573	3.47783
258.209	3.47505
258.033	3.47331
257.892	3.47112
257.892	3.47112
257.693	3.46279
257.473	3.45426
257.238	3.44548
256.997	3.43639
256.759	3.4269
256.759	3.4269
256.541	3.42293
256.32	3.41891
256.096	3.41486
256.096	3.41486
255.821	3.41466
255.547	3.41446
255.274	3.41426
255.274	3.41426
255.201	3.41541
255.128	3.41651
255.055	3.41759
254.628	3.42091
254.146	3.4272
253.471	3.43341
252.695	3.43354
252.695	3.43354
252.386	3.42702
252.107	3.42026
251.852	3.41327
251.618	3.40604
251.399	3.3986
251.19	3.39096
250.985	3.38312
250.781	3.37511
250.573	3.36693
250.355	3.35862
250.122	3.35017
249.87	3.34162
249.595	3.33297
249.292	3.32427
248.955	3.31553
248.955	3.31553
248.484	3.3072
248.037	3.29891
247.611	3.29055
247.205	3.28199
246.816	3.2731
246.443	3.26373
246.084	3.25373
245.738	3.24291
245.403	3.2311
244.942	3.21289
244.601	3.20225
244.253	3.19136
243.899	3.18024
243.539	3.16886
243.173	3.15725
242.8	3.14537
242.421	3.13324
242.035	3.12086
241.643	3.10821
241.244	3.0953
240.839	3.08212
240.427	3.06867
240.009	3.05496
239.583	3.04097
239.151	3.02671
238.712	3.01219
238.266	2.99739
237.814	2.98232
237.354	2.96699
236.887	2.9514
236.414	2.93555
236.414	2.93555
235.415	2.90617
234.548	2.87995
233.83	2.8576
233.281	2.83975
232.919	2.82697
232.765	2.81969
232.765	2.81969
232.391	2.81325
231.962	2.80352
231.676	2.78841
231.32	2.77652
231.21	2.77522
231.002	2.77071
230.65	2.76209
230.109	2.74828
229.332	2.7279
228.28	2.69906
226.913	2.65901
226.913	2.65901
226.3	2.64663
225.688	2.63361
225.076	2.62003
225.076	2.62003
224.108	2.60931
223.19	2.60033
222.357	2.59292
221.643	2.58684
221.081	2.58186
220.704	2.57768
220.546	2.57403
220.468	2.57407
219.092	2.58853
218.059	2.59932
217.299	2.60739
216.751	2.61357
216.352	2.61863
216.043	2.62326
215.767	2.62817
215.465	2.63397
215.465	2.63397
214.88	2.65476
214.322	2.67503
213.786	2.6951
213.266	2.71528
212.754	2.73579
212.244	2.75682
211.731	2.7785
211.209	2.80094
