Uv/Vis Spectrum: 3-Fluoropyridine
Formula: C5H4FN
CAS: 372-47-4
Instrument: Beckman spectrophotometer
Origin: INSTITUTE OF ENERGY PROBLEMS OF CHEMICAL PHYSICS, RAS
Wavelength (nm)	Logarithm epsilon
280.444	1.85391
279.703	1.94623
278.987	2.03584
278.295	2.12215
277.625	2.20492
276.978	2.28407
276.978	2.28407
276.345	2.39394
275.916	2.45686
275.582	2.50284
275.239	2.54866
274.781	2.60496
274.781	2.60496
274.584	2.64577
274.395	2.68305
274.212	2.71735
274.036	2.74913
273.866	2.77874
273.702	2.80645
273.544	2.83249
273.392	2.85707
273.244	2.88034
273.103	2.90244
272.966	2.92348
272.833	2.94357
272.705	2.96278
272.581	2.98121
272.461	2.99891
272.344	3.01594
272.231	3.03235
272.121	3.0482
272.014	3.06351
271.91	3.07834
271.91	3.07834
271.767	3.08728
271.665	3.09518
271.557	3.09993
271.557	3.09993
271.487	3.11433
271.401	3.12804
271.3	3.14117
271.185	3.15379
271.055	3.16596
270.913	3.17775
270.757	3.18921
270.589	3.20039
270.409	3.21135
270.217	3.22212
270.217	3.22212
269.694	3.23409
269.243	3.24444
268.571	3.25701
268.571	3.25701
268.013	3.26317
267.664	3.26777
267.227	3.27474
267.227	3.27474
266.878	3.2864
266.579	3.2962
266.32	3.30457
266.092	3.31187
265.887	3.31845
265.694	3.32463
265.506	3.33072
265.313	3.33699
265.107	3.34372
264.878	3.35115
264.618	3.35952
264.319	3.36903
263.971	3.37986
263.971	3.37986
263.462	3.38632
263.057	3.38998
262.715	3.39147
262.394	3.3914
262.055	3.39038
261.656	3.38897
261.16	3.38776
260.527	3.38735
260.527	3.38735
259.801	3.39282
259.173	3.39756
258.629	3.40152
258.155	3.40467
257.738	3.40696
257.365	3.40835
257.022	3.40879
256.699	3.40822
256.381	3.40658
256.057	3.40379
255.714	3.39979
255.341	3.39446
254.925	3.3877
254.454	3.37939
254.454	3.37939
253.802	3.37007
253.271	3.36227
252.833	3.35566
252.464	3.34989
252.137	3.34457
251.827	3.33931
251.508	3.33368
251.156	3.32722
250.746	3.31947
250.254	3.30989
250.254	3.30989
249.938	3.29993
249.444	3.28782
248.95	3.2772
248.95	3.2772
248.693	3.26889
248.426	3.26048
248.15	3.25196
247.866	3.24332
247.576	3.23453
247.283	3.22557
246.988	3.21643
246.692	3.20707
246.398	3.19748
246.107	3.18762
245.822	3.17746
245.543	3.16698
245.273	3.15613
245.012	3.14488
244.763	3.13318
244.763	3.13318
243.861	3.10293
243.399	3.08604
243.228	3.0784
243.201	3.07465
242.796	3.06005
242.4	3.04652
242.005	3.03254
241.611	3.01809
241.219	3.00311
240.827	2.9876
240.436	2.97149
240.046	2.95476
239.657	2.93736
239.268	2.91923
239.268	2.91923
238.848	2.90267
238.431	2.88621
238.015	2.86984
237.6	2.85357
237.183	2.83741
236.765	2.82134
236.344	2.80538
235.919	2.78952
235.488	2.77375
235.052	2.75807
234.608	2.74247
234.156	2.72692
233.694	2.71142
233.223	2.69594
232.74	2.68045
232.245	2.66494
231.738	2.64936
231.216	2.63367
230.68	2.61782
230.128	2.60177
230.128	2.60177
229.599	2.58358
228.945	2.57303
228.27	2.56503
227.675	2.5539
227.256	2.5333
227.256	2.5333
226.757	2.52656
226.259	2.51963
225.763	2.51251
225.268	2.5052
224.774	2.49773
224.282	2.49009
223.792	2.4823
223.303	2.47437
222.815	2.46631
222.33	2.45813
221.846	2.44986
221.363	2.44149
220.883	2.43305
220.404	2.42456
219.926	2.41604
219.451	2.40751
218.977	2.39898
218.505	2.39049
218.034	2.38206
217.566	2.37372
217.099	2.3655
216.634	2.35742
216.171	2.34954
215.71	2.34187
215.251	2.33446
214.793	2.32735
214.338	2.32058
213.885	2.31419
213.433	2.30823
212.983	2.30273
212.865	2.29627
212.282	2.3103
211.701	2.32352
211.122	2.33611
210.544	2.34824
