Uv/Vis Spectrum: Benzenamine, 3-fluoro-
Formula: C6H6FN
CAS: 372-19-0
Melting point: 188.5
Instrument: Unicam SP 800 B
Origin: INSTITUTE OF ENERGY PROBLEMS OF CHEMICAL PHYSICS, RAS
Wavelength (nm)	Logarithm epsilon
202.9	3.818
204.44	3.811
205.29	3.787
206.31	3.763
207.17	3.736
208.02	3.712
208.7	3.685
209.56	3.658
210.24	3.63
210.75	3.603
211.43	3.576
212.12	3.549
212.63	3.518
213.14	3.491
213.99	3.467
215.53	3.457
216.89	3.467
217.75	3.494
218.77	3.518
219.62	3.545
220.48	3.569
221.33	3.596
222.18	3.624
223.04	3.647
223.72	3.675
224.57	3.702
225.43	3.729
226.45	3.753
227.3	3.78
228.16	3.804
229.01	3.831
230.03	3.855
230.89	3.883
231.91	3.906
232.76	3.93
233.96	3.947
235.32	3.957
236.86	3.964
238.4	3.964
239.76	3.947
241.13	3.934
242.32	3.913
243.17	3.889
244.03	3.865
244.71	3.838
245.73	3.814
246.24	3.787
246.93	3.76
247.44	3.733
247.95	3.702
248.46	3.675
248.98	3.647
249.49	3.62
250	3.59
250.34	3.559
250.68	3.528
250.85	3.498
251.19	3.467
251.53	3.436
252.05	3.406
252.39	3.375
252.73	3.344
253.07	3.314
253.24	3.283
253.75	3.256
254.09	3.225
254.44	3.194
254.78	3.164
255.12	3.133
255.46	3.102
255.8	3.072
255.97	3.041
256.31	3.01
256.65	2.98
257.17	2.949
257.51	2.918
257.85	2.888
258.36	2.86
258.7	2.83
259.38	2.803
260.58	2.782
262.11	2.779
263.31	2.796
264.33	2.816
265.36	2.84
266.21	2.867
266.89	2.894
267.75	2.922
268.6	2.946
269.45	2.969
270.14	2.997
271.16	3.021
272.01	3.044
273.04	3.065
274.06	3.089
275.25	3.109
276.11	3.133
277.13	3.153
278.33	3.17
279.52	3.187
280.89	3.205
282.25	3.218
283.79	3.218
285.32	3.218
286.86	3.215
288.22	3.201
289.59	3.187
290.95	3.17
292.15	3.15
293.17	3.126
294.2	3.102
295.22	3.078
296.07	3.051
296.76	3.024
297.61	3
298.29	2.973
299.14	2.949
299.83	2.922
300.51	2.894
301.19	2.867
301.7	2.84
302.22	2.809
302.73	2.782
303.24	2.755
303.75	2.724
304.09	2.693
304.61	2.666
305.12	2.636
305.46	2.605
305.63	2.574
305.97	2.544
306.48	2.516
306.82	2.486
306.99	2.455
307.51	2.424
307.68	2.394
308.02	2.363
308.36	2.332
308.53	2.302
308.87	2.271
309.21	2.24
309.55	2.21
309.9	2.179
310.07	2.148
310.24	2.118
310.41	2.087
310.75	2.056
311.09	2.026
311.26	1.995
311.43	1.964
311.77	1.934
311.94	1.903
312.28	1.872
312.46	1.842
312.8	1.811
312.97	1.78
313.31	1.75
313.65	1.719
313.82	1.688
314.16	1.658
314.33	1.627
314.67	1.596
315.01	1.566
315.36	1.535
315.7	1.504
316.04	1.474
316.21	1.443
316.55	1.412
316.89	1.382
317.23	1.351
317.57	1.32
317.92	1.29
318.26	1.259
318.43	1.228
318.77	1.198
319.11	1.167
319.28	1.137
319.79	1.106
320.13	1.075
320.3	1.045
