Uv/Vis Spectrum: Carbamodithioic acid, dimethyl-, methyl ester
Formula: C4H9NS2
CAS: 3735-92-0
Instrument: n.i.g.
Origin: INSTITUTE OF ENERGY PROBLEMS OF CHEMICAL PHYSICS, RAS
Wavelength (nm)	Logarithm epsilon
224.1	3.992
225.09	3.974
226.15	3.952
227.18	3.928
228.21	3.899
229.23	3.874
230.26	3.84
231.28	3.805
231.9	3.78
232.43	3.765
233.33	3.753
234.36	3.753
235.38	3.763
236.2	3.774
237.44	3.798
238.46	3.813
239.5	3.83
240.51	3.851
241.56	3.87
242.56	3.888
243.59	3.906
244.62	3.919
245.64	3.927
246.67	3.932
247.69	3.936
248.72	3.934
249.74	3.93
250.77	3.923
251.79	3.913
252.82	3.897
253.85	3.881
254.87	3.863
255.93	3.847
256.92	3.84
257.95	3.836
258.97	3.84
260	3.851
261.03	3.86
262.05	3.878
263.08	3.899
264.1	3.921
265.13	3.936
266.15	3.953
267.18	3.974
268.21	3.988
269.23	4.001
270.26	4.019
271.28	4.034
272.31	4.046
273.33	4.05
274.36	4.051
275.38	4.049
276.41	4.043
277.4	4.029
278.46	4.011
279.49	3.991
280.57	3.964
281.56	3.935
282.56	3.904
283.59	3.877
284.62	3.846
285.64	3.812
286.67	3.77
287.7	3.727
288.88	3.668
289.74	3.629
290.77	3.58
291.79	3.507
292.82	3.437
293.85	3.384
294.87	3.315
295.9	3.27
296.92	3.213
297.95	3.114
