Uv/Vis Spectrum: 1,1,3,3-Tetranitrobutane
Formula: C4H6N4O8
CAS: 3759-60-2
Melting point: 54-55
Instrument: n.i.g.
Origin: INSTITUTE OF ENERGY PROBLEMS OF CHEMICAL PHYSICS, RAS
Wavelength (nm)	Logarithm epsilon
220.9	4.194
224.54	4.194
228.79	4.187
233.02	4.167
236.65	4.146
239.88	4.119
243.12	4.092
245.94	4.058
249.17	4.031
252	3.997
254.83	3.963
258.06	3.915
260.48	3.874
263.16	3.84
265.73	3.793
267.95	3.748
269.77	3.698
271.38	3.643
273.4	3.596
275.42	3.548
278.25	3.507
282.31	3.487
287.13	3.48
291.04	3.49
294	3.514
296.83	3.548
300.06	3.595
302.08	3.63
304.5	3.67
307.33	3.704
309.75	3.745
312.58	3.779
315.4	3.82
318.09	3.86
320.25	3.902
323.48	3.936
326.31	3.976
329.13	4.01
332.17	4.053
334.42	4.083
337.62	4.112
340.85	4.14
344.85	4.169
347.71	4.187
351.35	4.201
355.27	4.196
358.62	4.174
361.85	4.14
364.67	4.092
367.1	4.044
369.12	3.997
371.13	3.949
373.3	3.895
375.98	3.834
378	3.779
379.21	3.725
