Uv/Vis Spectrum: 1,3-dihydro-4-methyl-8-nitro-2H-1,5-benzodiazepin-2-one
Formula: C10H9N3O3
CAS: 37546-88-6
Melting point: 197-197.5
Instrument: SF-16
Origin: INSTITUTE OF ENERGY PROBLEMS OF CHEMICAL PHYSICS, RAS
Wavelength (nm)	Logarithm epsilon
204.771	3.37
205.271	3.367
205.771	3.364
206.271	3.36
206.771	3.357
207.271	3.354
207.771	3.351
208.271	3.348
208.771	3.345
209.271	3.343
209.771	3.34
210.271	3.338
210.771	3.337
211.271	3.335
211.771	3.334
212.271	3.332
212.771	3.331
213.271	3.33
213.771	3.33
214.271	3.329
214.771	3.329
215.271	3.328
215.771	3.328
216.271	3.328
216.771	3.327
217.271	3.327
217.771	3.327
218.271	3.327
218.771	3.326
219.271	3.326
219.771	3.326
220.271	3.325
220.771	3.325
221.271	3.324
221.771	3.324
222.271	3.323
222.771	3.323
223.271	3.322
223.771	3.321
224.271	3.321
224.771	3.32
225.271	3.32
225.771	3.319
226.271	3.319
226.771	3.318
227.271	3.318
227.771	3.318
228.271	3.317
228.771	3.317
229.271	3.317
229.771	3.317
230.271	3.317
230.771	3.318
231.271	3.318
231.771	3.318
232.271	3.319
232.771	3.32
233.271	3.32
233.771	3.321
234.271	3.322
234.771	3.323
235.271	3.323
235.771	3.324
236.271	3.325
236.771	3.325
237.271	3.325
237.771	3.326
238.271	3.326
238.771	3.325
239.271	3.325
239.771	3.324
240.271	3.323
240.771	3.321
241.271	3.319
241.771	3.317
242.271	3.314
242.771	3.31
243.271	3.306
243.771	3.302
244.271	3.297
244.771	3.292
245.271	3.287
245.771	3.281
246.271	3.275
246.771	3.268
247.271	3.262
247.771	3.256
248.271	3.25
248.771	3.245
249.033	3.243
250.533	3.218
252.033	3.191
253.533	3.162
255.033	3.132
256.533	3.101
258.033	3.071
259.533	3.042
261.033	3.013
262.533	2.987
264.033	2.962
265.533	2.94
267.033	2.921
268.533	2.905
270.033	2.891
271.533	2.88
273.033	2.871
274.533	2.865
276.033	2.861
277.533	2.859
279.033	2.859
280.533	2.859
282.033	2.861
283.533	2.863
285.033	2.866
286.533	2.87
288.033	2.874
289.533	2.878
291.033	2.883
292.533	2.889
294.033	2.896
295.126	2.905
296.626	2.909
298.126	2.917
299.626	2.928
301.126	2.94
302.626	2.952
304.126	2.963
305.626	2.972
307.126	2.98
308.626	2.985
310.126	2.989
311.626	2.99
313.126	2.99
314.626	2.987
316.126	2.983
317.626	2.978
319.126	2.971
320.626	2.964
322.126	2.957
323.626	2.948
325.126	2.94
326.626	2.931
328.126	2.922
329.626	2.912
331.126	2.902
332.626	2.892
334.126	2.881
335.626	2.869
337.126	2.856
338.626	2.842
339.999	2.825
341.499	2.813
342.999	2.799
344.499	2.783
345.999	2.766
347.499	2.749
348.999	2.731
350.499	2.712
351.999	2.693
353.499	2.674
354.999	2.656
356.499	2.637
357.999	2.619
359.499	2.601
360.999	2.583
362.499	2.566
363.999	2.548
365.499	2.531
366.999	2.513
368.499	2.496
369.999	2.478
371.499	2.46
372.999	2.442
374.499	2.423
375.999	2.405
377.499	2.387
378.999	2.369
380.499	2.351
381.999	2.334
383.499	2.318
384.999	2.303
386.499	2.29
387.999	2.278
389.499	2.268
390.999	2.259
392.499	2.252
393.999	2.247
395.499	2.242
396.999	2.237
398.499	2.231
