Uv/Vis Spectrum: 1,3-dihydro-4-methyl-7-nitro-2H-1,5-benzodiazepin-2-one
Formula: C10H9N3O3
CAS: 37546-86-4
Melting point: 242-243
Instrument: SF-4A
Origin: INSTITUTE OF ENERGY PROBLEMS OF CHEMICAL PHYSICS, RAS
Wavelength (nm)	Logarithm epsilon
222.946	4.246
223.946	4.234
224.946	4.217
225.946	4.196
226.946	4.173
227.946	4.148
228.946	4.122
229.946	4.096
230.946	4.07
231.946	4.045
232.946	4.022
233.946	4
234.946	3.98
235.946	3.963
236.946	3.947
237.946	3.935
238.946	3.924
239.946	3.917
240.946	3.912
241.946	3.909
242.946	3.908
243.946	3.91
244.946	3.914
245.946	3.919
246.946	3.926
247.946	3.935
248.946	3.944
249.946	3.955
250.946	3.967
251.946	3.979
252.946	3.991
253.946	4.003
254.946	4.015
255.946	4.027
256.946	4.039
257.946	4.049
258.946	4.059
259.946	4.068
260.946	4.076
261.946	4.083
262.946	4.089
263.946	4.093
264.946	4.096
265.946	4.098
266.946	4.099
267.946	4.098
268.946	4.097
269.946	4.094
270.946	4.091
271.871	4.086
272.871	4.084
273.871	4.08
274.871	4.076
275.871	4.071
276.871	4.066
277.871	4.061
278.871	4.055
279.871	4.05
280.871	4.045
281.871	4.041
282.871	4.037
283.871	4.033
284.871	4.03
285.871	4.028
286.871	4.026
287.871	4.024
288.871	4.023
289.871	4.023
290.871	4.023
291.871	4.023
292.871	4.024
293.871	4.025
294.871	4.026
295.871	4.028
296.871	4.029
297.871	4.031
298.871	4.032
299.871	4.033
300.871	4.034
301.871	4.035
302.871	4.036
303.871	4.036
304.871	4.035
305.871	4.035
306.871	4.033
307.871	4.032
308.871	4.029
309.871	4.026
310.871	4.023
311.871	4.019
312.871	4.014
313.871	4.009
314.871	4.003
315.871	3.996
316.871	3.989
317.871	3.982
318.871	3.974
319.871	3.965
320.871	3.957
321.871	3.947
322.871	3.938
323.871	3.929
324.871	3.919
325.871	3.909
326.871	3.899
327.871	3.889
328.871	3.878
329.871	3.868
330.871	3.858
331.871	3.848
332.871	3.837
333.871	3.826
334.871	3.816
335.186	3.812
336.186	3.8
337.186	3.788
338.186	3.775
339.186	3.762
340.186	3.748
341.186	3.735
342.186	3.72
343.186	3.706
344.186	3.691
345.186	3.677
346.186	3.662
347.186	3.647
348.186	3.632
349.186	3.617
350.186	3.602
351.186	3.586
352.186	3.571
353.186	3.556
354.186	3.541
355.186	3.526
356.186	3.511
357.186	3.495
358.186	3.48
359.186	3.465
360.186	3.45
361.186	3.435
362.186	3.419
363.186	3.404
364.186	3.389
365.186	3.373
366.186	3.358
367.186	3.342
368.186	3.327
369.186	3.311
370.186	3.295
371.186	3.28
372.186	3.264
373.186	3.248
374.186	3.231
374.326	3.227
375.326	3.214
376.326	3.199
377.326	3.183
378.326	3.166
379.326	3.149
380.326	3.131
381.326	3.114
382.326	3.096
383.326	3.079
384.326	3.062
385.326	3.045
386.326	3.028
387.326	3.011
388.326	2.994
389.326	2.977
390.326	2.96
391.326	2.942
392.326	2.923
393.326	2.904
394.326	2.884
395.326	2.862
396.326	2.839
397.326	2.814
398.326	2.787
399.326	2.759
400.326	2.727
401.326	2.694
402.326	2.658
403.326	2.62
404.326	2.579
405.326	2.535
406.326	2.49
