Uv/Vis Spectrum: 1,4-naphthalenedisulfonyl dichloride
Formula: C10H6Cl2O4S2
CAS: 37634-58-5
Melting point: 161-161.5
Instrument: SF-4
Origin: INSTITUTE OF ENERGY PROBLEMS OF CHEMICAL PHYSICS, RAS
Wavelength (nm)	Logarithm epsilon
220.745	4.185
221.745	4.151
222.745	4.118
223.745	4.09
224.745	4.066
225.745	4.049
226.745	4.04
227.745	4.037
228.745	4.04
229.745	4.05
230.745	4.065
231.745	4.084
232.745	4.106
233.745	4.13
234.745	4.156
235.745	4.182
236.745	4.21
237.745	4.238
237.832	4.239
238.832	4.275
239.832	4.314
240.832	4.354
241.832	4.393
242.832	4.427
243.832	4.456
244.832	4.478
245.832	4.493
246.832	4.5
247.832	4.499
248.832	4.489
249.832	4.468
250.832	4.436
251.832	4.39
252.832	4.329
253.732	4.241
254.732	4.132
255.732	3.99
256.732	3.847
257.732	3.707
258.732	3.571
259.732	3.439
260.732	3.316
261.732	3.201
262.732	3.097
263.699	3.017
264.699	2.922
265.699	2.837
266.699	2.764
267.699	2.707
268.699	2.665
269.699	2.64
270.699	2.631
271.699	2.634
272.699	2.65
273.699	2.675
274.699	2.707
275.699	2.742
276.699	2.779
277.699	2.814
278.65	2.841
279.65	2.872
280.65	2.901
281.65	2.929
282.65	2.955
283.65	2.981
284.65	3.007
285.65	3.033
286.65	3.058
287.65	3.084
288.65	3.111
289.65	3.137
290.65	3.165
291.65	3.192
292.65	3.22
293.65	3.248
294.65	3.275
295.65	3.303
296.65	3.331
297.65	3.359
298.65	3.386
299.65	3.412
300.65	3.439
301.65	3.464
302.65	3.489
303.65	3.512
304.65	3.535
305.65	3.557
306.65	3.579
307.65	3.599
308.65	3.618
309.65	3.636
310.65	3.653
311.65	3.67
312.65	3.685
313.65	3.7
314.65	3.713
315.65	3.726
316.65	3.739
317.65	3.75
318.65	3.761
319.65	3.771
320.65	3.78
321.65	3.788
322.65	3.795
323.503	3.801
324.503	3.805
325.503	3.809
326.503	3.811
327.503	3.811
328.503	3.809
329.503	3.806
330.503	3.807
331.572	3.816
332.572	3.821
333.572	3.827
334.572	3.831
335.572	3.831
336.572	3.825
337.572	3.812
338.572	3.793
339.572	3.768
340.711	3.732
341.711	3.698
342.711	3.668
343.711	3.64
344.711	3.612
345.711	3.584
346.711	3.554
347.711	3.523
348.711	3.49
349.711	3.454
350.711	3.417
351.711	3.376
352.711	3.334
353.711	3.29
354.711	3.244
355.711	3.196
356.711	3.148
357.711	3.098
358.711	3.048
359.711	2.996
360.711	2.944
361.711	2.891
362.711	2.837
363.711	2.781
364.711	2.723
365.711	2.66
366.711	2.593
367.711	2.519
368.711	2.437
369.711	2.343
370.711	2.236
371.711	2.113
