Uv/Vis Spectrum: 5-(4-nitrophenyl)-1-phenyl-2,4-pentadien-1-one
Formula: C17H13NO3
CAS: 3769-51-5
Melting point: 166-167
Instrument: SF-4A
Origin: INSTITUTE OF ENERGY PROBLEMS OF CHEMICAL PHYSICS, RAS
Wavelength (nm)	Logarithm epsilon
224.225	4.141
225.725	4.139
227.225	4.135
228.725	4.129
230.225	4.121
231.725	4.111
233.225	4.1
234.725	4.086
236.225	4.071
237.725	4.055
239.225	4.037
240.725	4.017
242.225	3.996
243.725	3.973
245.225	3.948
246.725	3.922
248.225	3.894
249.658	3.866
251.158	3.835
252.658	3.813
254.158	3.81
255.658	3.828
257.006	3.85
257.854	3.864
259.071	3.874
260.571	3.886
262.071	3.899
263.571	3.912
265.071	3.924
266.571	3.935
268.071	3.945
269.571	3.954
271.071	3.961
272.571	3.967
274.071	3.971
275.571	3.974
277.107	3.977
278.57	3.977
280.07	3.976
281.57	3.978
283.07	3.981
284.57	3.986
286.07	3.993
287.57	4
289.07	4.009
290.57	4.019
292.07	4.03
293.57	4.041
295.07	4.053
296.57	4.065
298.07	4.078
299.57	4.092
301.07	4.106
302.57	4.121
304.07	4.137
305.57	4.154
307.07	4.171
308.57	4.19
310.07	4.21
311.57	4.232
313.07	4.255
313.931	4.274
314.741	4.291
316.241	4.318
317.741	4.344
319.241	4.368
320.741	4.392
322.241	4.415
323.741	4.437
325.241	4.457
326.741	4.477
328.241	4.496
329.741	4.514
331.241	4.531
332.741	4.547
334.241	4.562
335.741	4.576
337.241	4.589
338.741	4.601
340.241	4.612
341.741	4.621
343.241	4.63
344.741	4.637
346.241	4.644
347.741	4.649
349.241	4.653
350.741	4.656
352.241	4.657
353.741	4.657
355.241	4.656
356.741	4.653
358.241	4.649
359.741	4.643
361.241	4.636
362.741	4.627
364.241	4.616
365.741	4.604
367.241	4.59
368.741	4.574
370.241	4.556
371.741	4.536
373.241	4.514
374.741	4.49
376.241	4.464
377.741	4.435
379.241	4.404
380.741	4.371
382.241	4.335
383.741	4.296
385.241	4.255
386.741	4.211
388.241	4.164
389.741	4.114
391.241	4.061
392.741	4.005
394.241	3.946
395.741	3.883
397.241	3.817
398.741	3.747
400.241	3.673
