Uv/Vis Spectrum: Pyrimidine, 2,4,6-trichloro-
Formula: C4HCl3N2
CAS: 3764-01-0
Boiling point: 224
Instrument: SF-16
Origin: INSTITUTE OF ENERGY PROBLEMS OF CHEMICAL PHYSICS, RAS
Wavelength (nm)	Logarithm epsilon
204.72	4.018
207.56	3.985
208.98	3.961
210.39	3.942
211.81	3.919
213.23	3.909
214.65	3.886
216.06	3.857
217.48	3.829
218.9	3.805
220.31	3.777
221.73	3.749
223.15	3.716
224.57	3.673
225.98	3.635
227.4	3.584
228.82	3.522
230.24	3.466
231.65	3.414
233.07	3.329
234.49	3.248
235.91	3.206
237.32	3.201
238.74	3.206
240.16	3.225
241.57	3.258
242.99	3.296
244.41	3.319
245.83	3.362
247.24	3.409
248.66	3.48
250.08	3.522
251.5	3.569
252.91	3.607
254.33	3.645
255.75	3.673
257.17	3.697
258.58	3.72
260	3.744
261.42	3.763
262.83	3.777
264.25	3.782
265.67	3.753
267.09	3.697
268.5	3.645
269.92	3.574
271.34	3.466
272.76	3.381
274.17	3.239
275.59	3.149
277.01	3.008
