Uv/Vis Spectrum: Benzoic acid, 4-(phenylazo)-(E)-
Formula: C13H10N2O2
CAS: 37790-20-8
Instrument: Jasco UVIDEC-1
Origin: INSTITUTE OF ENERGY PROBLEMS OF CHEMICAL PHYSICS, RAS
Wavelength (nm)	Logarithm epsilon
195.21	4.326
196.08	4.333
196.95	4.336
197.82	4.334
198.69	4.327
199.56	4.315
200.04	4.306
200.66	4.295
201.39	4.278
201.71	4.269
203.17	4.236
204.32	4.203
205.58	4.161
206.41	4.14
207.37	4.106
208.24	4.076
209.11	4.053
209.76	4.039
210.7	4.022
211.33	4.009
212.38	3.99
213.45	3.969
214.32	3.952
215.19	3.938
216.06	3.938
216.93	3.942
217.81	3.945
218.65	3.947
219.7	3.952
220.4	3.956
221.27	3.96
222.14	3.963
223.01	3.969
223.88	3.973
224.75	3.978
225.61	3.982
226.48	3.985
227.35	3.991
228.22	3.994
229.09	3.998
229.96	4.001
230.83	4.004
231.69	4.004
232.56	4.004
233.43	3.999
234.3	3.992
235.17	3.987
236.04	3.98
236.91	3.973
237.78	3.967
238.64	3.958
239.51	3.952
240.38	3.944
241.25	3.93
242.12	3.922
242.99	3.916
243.86	3.91
244.72	3.899
245.59	3.895
246.46	3.886
247.33	3.877
248.2	3.87
249.07	3.86
249.94	3.846
250.81	3.838
251.67	3.828
252.54	3.818
253.41	3.807
254.28	3.797
255.15	3.788
256.02	3.777
256.89	3.768
257.75	3.762
258.62	3.756
259.49	3.75
260.36	3.744
261.23	3.738
262.1	3.735
262.97	3.731
263.83	3.728
264.7	3.725
265.57	3.722
266.44	3.722
267.31	3.722
268.18	3.725
269.05	3.731
269.92	3.735
270.78	3.744
271.65	3.75
272.52	3.756
273.39	3.765
274.26	3.777
275.13	3.791
276	3.799
276.86	3.813
277.73	3.831
278.6	3.848
279.47	3.863
280.34	3.879
281.21	3.905
282.08	3.938
282.94	3.96
283.81	3.98
284.68	3.996
285.55	4.01
286.42	4.028
287.29	4.034
288.16	4.056
289.03	4.076
289.89	4.085
290.76	4.095
291.63	4.108
292.5	4.123
293.37	4.136
294.24	4.151
295.11	4.161
295.97	4.173
296.84	4.18
297.71	4.19
298.58	4.2
299.45	4.211
300.32	4.22
301.19	4.226
302.06	4.242
302.92	4.256
303.79	4.267
304.66	4.278
305.53	4.289
306.4	4.298
307.27	4.305
308.14	4.313
309	4.321
309.87	4.325
310.74	4.333
311.61	4.337
312.48	4.342
313.35	4.346
314.22	4.35
315.08	4.355
315.95	4.358
316.82	4.362
317.69	4.365
318.56	4.372
319.43	4.374
320.3	4.375
321.17	4.378
322.03	4.378
322.9	4.378
323.77	4.378
324.64	4.374
325.51	4.369
326.38	4.366
327.25	4.364
328.11	4.36
328.98	4.357
329.85	4.352
330.72	4.348
331.59	4.344
332.46	4.338
333.33	4.334
334.19	4.327
335.06	4.321
335.93	4.314
336.8	4.307
337.67	4.301
338.54	4.293
339.41	4.283
340.28	4.276
341.14	4.266
342.01	4.245
342.88	4.236
343.75	4.223
344.62	4.211
345.49	4.198
346.36	4.171
347.22	4.149
348.09	4.127
348.96	4.11
349.83	4.091
350.7	4.069
351.57	4.047
352.44	4.032
353.31	4.011
354.17	3.992
355.04	3.969
355.91	3.954
356.78	3.936
357.65	3.916
358.52	3.901
359.39	3.883
360.25	3.843
361.12	3.821
361.99	3.802
362.86	3.785
363.73	3.765
364.6	3.747
365.47	3.728
366.33	3.705
367.2	3.684
368.07	3.666
368.94	3.643
369.81	3.619
370.68	3.594
371.55	3.571
372.42	3.542
373.28	3.522
374.15	3.49
375.02	3.473
378.2	3.406
381.1	3.338
383.71	3.27
386.1	3.202
388.07	3.147
390.66	3.089
393.76	3.074
398.47	3.075
406.29	3.103
414.36	3.129
421.93	3.142
429.75	3.142
437.56	3.129
445.38	3.103
452.33	3.06
459.28	2.996
467.1	2.94
474.05	2.853
481.86	2.774
489.68	2.677
497.5	2.598
505.2	2.523
513.14	2.443
520.05	2.368
526.24	2.3
534.28	2.197
542.94	2.071
552.22	1.899
