Uv/Vis Spectrum: 4-[(4-chlorophenyl)sulfonyl]benzoic acid
Formula: C13H9ClO4S
CAS: 37940-65-1
Instrument: SF-4A
Origin: INSTITUTE OF ENERGY PROBLEMS OF CHEMICAL PHYSICS, RAS
Wavelength (nm)	Logarithm epsilon
191.786	4.706
193.786	4.725
195.786	4.724
197.786	4.704
199.786	4.663
201.786	4.603
203.786	4.523
205.786	4.422
207.93	4.268
209.93	4.158
211.93	4.082
213.93	4.039
215.93	4.029
217.999	4.055
219.999	4.099
221.999	4.129
223.999	4.145
225.999	4.15
227.994	4.145
229.994	4.13
231.994	4.122
233.994	4.124
235.994	4.136
237.8	4.159
239.496	4.233
241.195	4.323
243.195	4.453
245.195	4.525
247.195	4.556
249.195	4.575
251.195	4.585
253.195	4.566
255.367	4.501
257.367	4.437
259.367	4.385
261.367	4.334
263.367	4.279
265.367	4.216
267.367	4.147
269.367	4.072
271.367	3.995
273.367	3.92
275.367	3.848
277.367	3.78
279.367	3.715
281.367	3.647
283.367	3.566
286.082	3.477
288.198	3.406
290.186	3.345
292.306	3.275
294.162	3.204
295.323	3.055
296.077	2.908
296.832	2.753
297.586	2.597
298.34	2.431
299.132	2.255
300.038	2.101
301.169	1.991
303.107	1.852
305.095	1.751
307.083	1.65
309.071	1.569
311.059	1.489
313.05	1.441
