Uv/Vis Spectrum: Thiophene,3,3'-thiobis-
Formula: C8H6S3
CAS: 3807-38-3
Melting point: 50
Instrument: Beckman Model DU
Origin: INSTITUTE OF ENERGY PROBLEMS OF CHEMICAL PHYSICS, RAS
Wavelength (nm)	Logarithm epsilon
212.56	3.902
212.73	3.902
212.9	3.902
213.07	3.902
213.24	3.902
214.6	3.875
215.28	3.864
215.95	3.857
216.63	3.844
217.31	3.837
217.99	3.827
218.67	3.823
219.35	3.82
220.03	3.82
220.71	3.823
221.39	3.827
222.06	3.84
222.74	3.857
223.42	3.878
224.1	3.905
224.78	3.94
225.46	3.974
226.14	4.008
226.82	4.056
227.5	4.091
228.18	4.128
228.85	4.17
229.53	4.204
230.21	4.238
230.89	4.273
231.57	4.293
232.25	4.324
232.93	4.348
233.61	4.372
234.29	4.389
234.96	4.41
235.64	4.424
236.32	4.437
237	4.437
237.68	4.427
238.36	4.403
239.04	4.358
239.72	4.293
240.4	4.218
241.07	4.156
241.75	4.077
242.43	4.012
243.11	3.953
243.79	3.892
244.47	3.854
245.15	3.813
245.83	3.792
246.51	3.761
247.18	3.741
247.86	3.717
248.54	3.7
249.22	3.679
249.9	3.662
250.58	3.652
251.26	3.645
251.94	3.655
252.62	3.645
253.3	3.641
253.97	3.655
254.65	3.658
255.33	3.645
256.01	3.641
256.69	3.638
257.37	3.641
258.05	3.645
258.73	3.658
259.41	3.672
260.08	3.676
260.76	3.676
261.44	3.676
262.12	3.662
262.8	3.652
263.48	3.628
264.16	3.61
264.84	3.593
265.52	3.579
266.19	3.569
266.87	3.555
267.55	3.542
268.23	3.525
268.91	3.521
269.59	3.507
270.27	3.49
270.95	3.47
271.63	3.422
272.3	3.374
272.98	3.332
273.66	3.281
274.34	3.226
275.02	3.181
275.7	3.137
276.38	3.109
277.06	3.089
277.74	3.082
278.42	3.072
279.09	3.072
279.77	3.082
280.45	3.085
281.13	3.103
281.81	3.116
282.49	3.133
283.17	3.151
283.85	3.168
284.53	3.185
285.2	3.205
285.88	3.233
286.56	3.253
287.24	3.267
287.92	3.284
288.6	3.298
289.28	3.315
289.96	3.332
290.64	3.35
291.31	3.37
291.99	3.401
292.67	3.439
293.35	3.473
294.03	3.504
294.71	3.521
295.39	3.528
296.07	3.538
296.75	3.538
297.42	3.535
298.1	3.525
298.78	3.511
299.46	3.49
300.14	3.466
300.82	3.432
301.5	3.401
302.18	3.384
302.86	3.38
303.54	3.384
304.21	3.411
304.89	3.559
305.57	3.741
306.25	3.73
306.93	3.628
307.61	3.48
308.29	3.288
308.97	3.103
309.65	2.897
312.36	2.495
313.04	2.324
313.72	2.125
314.4	1.97
315.08	1.843
315.76	1.706
316.43	1.6
317.11	1.483
317.79	1.373
318.47	1.25
319.15	1.164
319.83	1.088
320.51	1.009
