Uv/Vis Spectrum: N-[(5-chloro-2-hydroxyphenyl)phenylmethylene]-L-alanine
Formula: C16H14ClNO3
CAS: 38075-42-2
Melting point: 182
Instrument: unknown
Origin: INSTITUTE OF ENERGY PROBLEMS OF CHEMICAL PHYSICS, RAS
Wavelength (nm)	Logarithm epsilon
313.558	3.178
313.821	3.18
314.821	3.2
315.821	3.221
316.821	3.241
317.821	3.261
318.821	3.281
319.821	3.299
320.821	3.317
321.821	3.334
322.821	3.35
323.821	3.366
324.821	3.38
325.821	3.394
326.821	3.407
327.821	3.421
328.821	3.434
329.586	3.445
330.586	3.459
331.586	3.472
332.586	3.484
333.586	3.495
334.586	3.505
335.586	3.513
336.586	3.52
337.586	3.527
338.586	3.532
339.586	3.536
340.586	3.539
341.586	3.54
342.586	3.541
343.586	3.541
344.586	3.54
345.586	3.538
346.586	3.535
347.586	3.532
348.586	3.527
349.586	3.522
350.586	3.515
351.586	3.508
352.586	3.5
353.586	3.492
354.586	3.482
355.586	3.472
356.586	3.462
357.586	3.451
358.586	3.439
359.586	3.426
360.586	3.413
361.586	3.399
362.586	3.385
363.586	3.37
364.531	3.36
365.531	3.339
366.531	3.318
367.531	3.297
368.531	3.276
369.531	3.256
370.531	3.237
371.531	3.218
372.531	3.201
373.531	3.186
374.531	3.171
375.531	3.159
376.531	3.148
377.531	3.139
378.531	3.131
379.531	3.125
380.531	3.121
381.531	3.118
382.531	3.117
383.531	3.117
384.531	3.119
385.531	3.122
386.531	3.126
387.531	3.13
388.531	3.136
389.531	3.142
390.531	3.149
391.531	3.157
392.531	3.164
393.531	3.172
394.531	3.18
395.531	3.188
396.531	3.195
397.531	3.203
398.531	3.21
399.531	3.216
400.531	3.223
401.531	3.228
402.531	3.234
403.531	3.239
404.531	3.244
405.531	3.249
406.531	3.253
406.57	3.255
407.57	3.258
408.57	3.261
409.57	3.264
410.57	3.268
411.57	3.271
412.57	3.274
413.57	3.278
414.57	3.281
415.57	3.284
416.57	3.286
417.57	3.289
418.57	3.291
419.57	3.292
420.57	3.293
421.57	3.294
422.57	3.294
423.57	3.293
424.57	3.292
425.57	3.29
426.57	3.288
427.57	3.285
428.57	3.281
429.57	3.276
430.57	3.271
431.57	3.265
432.57	3.259
433.57	3.251
434.57	3.243
435.57	3.234
436.57	3.224
437.57	3.214
438.57	3.203
439.57	3.191
440.57	3.178
441.57	3.165
442.57	3.151
443.57	3.136
444.57	3.121
445.57	3.105
446.57	3.089
447.57	3.072
448.57	3.054
449.57	3.036
450.57	3.018
451.57	2.999
452.57	2.98
453.57	2.96
454.389	2.944
455.389	2.921
456.389	2.896
457.389	2.87
458.389	2.843
459.389	2.814
460.389	2.785
461.389	2.754
462.389	2.723
463.389	2.691
464.389	2.658
465.389	2.624
466.389	2.59
467.389	2.556
468.389	2.521
469.389	2.486
470.389	2.45
471.389	2.414
472.389	2.378
473.389	2.342
474.389	2.306
475.389	2.27
476.389	2.235
477.389	2.199
478.389	2.163
479.389	2.128
480.389	2.093
480.927	2.077
