Uv/Vis Spectrum: 3-(methylthio)-9H-1,2,4-triazino[6,5-b]indole
Formula: C10H8N4S
CAS: 38119-76-5
Melting point: 213-214
Instrument: SF-8
Origin: INSTITUTE OF ENERGY PROBLEMS OF CHEMICAL PHYSICS, RAS
Wavelength (nm)	Logarithm epsilon
236.796	4.155
238.296	4.096
239.796	4.054
241.296	4.026
242.796	4.007
244.296	3.996
245.796	3.99
247.296	3.988
248.796	3.987
250.296	3.988
251.796	3.991
253.296	3.994
254.796	3.998
256.296	4.004
257.796	4.012
259.296	4.022
260.796	4.035
262.296	4.051
263.796	4.071
265.248	4.094
266.76	4.128
267.969	4.165
268.949	4.205
270.449	4.265
271.949	4.319
273.449	4.367
274.949	4.409
276.449	4.445
277.949	4.475
279.449	4.5
281.483	4.516
283.732	4.527
286.114	4.527
288.231	4.52
289.949	4.507
291.449	4.484
292.949	4.456
294.449	4.421
295.949	4.381
297.449	4.335
298.949	4.283
300.449	4.225
301.599	4.192
302.952	4.132
304.305	4.069
305.659	4.025
307.012	3.955
308.365	3.889
309.718	3.818
311.748	3.712
313.102	3.645
314.709	3.568
316.209	3.499
317.709	3.443
319.209	3.401
320.709	3.37
322.209	3.351
323.709	3.343
325.209	3.343
326.709	3.353
328.209	3.371
329.709	3.395
331.209	3.427
332.709	3.464
334.209	3.506
336.271	3.57
338.486	3.647
340.357	3.705
342.101	3.761
344.146	3.801
346.19	3.83
347.724	3.85
349.873	3.865
352.161	3.863
353.816	3.851
355.316	3.837
356.816	3.815
358.316	3.79
359.816	3.764
361.202	3.737
362.618	3.711
364.118	3.686
365.618	3.657
367.118	3.627
368.618	3.593
370.118	3.558
371.618	3.521
373.118	3.482
374.618	3.443
376.118	3.402
377.618	3.361
379.118	3.32
380.618	3.279
382.118	3.239
383.618	3.199
385.118	3.16
386.618	3.122
388.118	3.085
389.618	3.05
391.118	3.017
392.618	2.985
393.952	2.959
395.452	2.931
396.952	2.905
398.452	2.881
399.952	2.859
401.452	2.84
402.952	2.823
404.452	2.808
405.952	2.795
407.452	2.785
408.952	2.776
410.452	2.769
411.952	2.765
413.452	2.762
414.952	2.76
416.452	2.76
417.952	2.762
419.452	2.765
420.952	2.769
422.452	2.774
423.952	2.779
425.452	2.786
426.952	2.793
428.452	2.801
429.952	2.809
431.452	2.817
432.952	2.826
434.452	2.834
435.952	2.843
437.452	2.851
438.952	2.859
440.452	2.867
441.952	2.875
443.452	2.883
444.952	2.891
446.452	2.898
447.952	2.906
449.452	2.913
450.952	2.92
452.452	2.927
453.952	2.934
455.452	2.942
456.952	2.949
457.179	2.949
458.679	2.958
460.179	2.967
461.679	2.976
463.179	2.985
464.679	2.994
466.179	3.003
467.679	3.011
469.179	3.019
470.679	3.028
472.179	3.035
473.679	3.043
475.179	3.05
476.679	3.057
478.179	3.064
479.679	3.071
481.179	3.077
482.679	3.083
484.179	3.089
485.679	3.094
487.179	3.099
488.679	3.104
490.179	3.108
491.679	3.112
493.179	3.116
494.679	3.119
496.179	3.122
497.679	3.125
499.179	3.127
500.679	3.129
502.179	3.131
503.679	3.132
505.179	3.133
506.679	3.134
508.179	3.134
509.679	3.134
511.179	3.133
512.679	3.132
514.179	3.131
515.679	3.129
517.179	3.127
518.679	3.125
520.179	3.122
521.679	3.118
523.179	3.114
524.679	3.11
526.179	3.105
527.679	3.1
529.179	3.094
530.679	3.088
532.179	3.081
533.679	3.074
535.179	3.066
536.679	3.058
538.179	3.049
539.679	3.039
541.179	3.03
542.679	3.019
544.179	3.008
545.679	2.997
547.179	2.984
548.679	2.972
550.179	2.958
551.679	2.945
553.179	2.93
554.679	2.915
556.179	2.9
557.679	2.884
559.179	2.867
560.679	2.85
562.179	2.832
563.679	2.814
565.179	2.795
