Uv/Vis Spectrum: 2-amino-alpha,alpha-diphenyl-3-pyridinemethanopl
Formula: C18H16N2O
CAS: 3810-21-7
Melting point: 133-134
Instrument: SF-4
Origin: INSTITUTE OF ENERGY PROBLEMS OF CHEMICAL PHYSICS, RAS
Wavelength (nm)	Logarithm epsilon
230.676	5.024
230.82	5.025
231.82	5.023
232.82	5.02
233.82	5.016
234.82	5.014
235.82	5.013
236.82	5.014
237.82	5.015
238.82	5.018
239.82	5.022
240.82	5.025
241.82	5.026
242.82	5.025
243.82	5.019
244.82	5.006
245.815	4.985
246.815	4.955
247.815	4.921
248.815	4.883
249.815	4.841
250.815	4.795
251.815	4.744
252.815	4.691
253.815	4.637
253.889	4.633
254.889	4.584
255.889	4.537
256.889	4.487
257.889	4.433
258.889	4.376
259.889	4.317
259.944	4.312
260.944	4.266
261.944	4.228
262.944	4.203
263.944	4.192
264.944	4.194
265.944	4.207
266.944	4.226
267.944	4.247
268.944	4.268
269.944	4.287
270.902	4.298
271.902	4.321
272.902	4.343
273.902	4.364
274.902	4.384
275.902	4.404
276.902	4.424
277.902	4.444
278.902	4.464
279.902	4.484
280.902	4.504
281.902	4.525
282.902	4.545
283.878	4.564
284.878	4.585
285.878	4.608
286.878	4.631
287.878	4.654
288.878	4.676
289.878	4.695
290.878	4.711
291.771	4.732
292.771	4.755
293.771	4.777
294.771	4.797
295.771	4.815
296.771	4.83
297.771	4.841
298.771	4.847
299.771	4.847
300.603	4.837
301.603	4.826
302.603	4.815
303.603	4.802
304.603	4.789
305.603	4.774
306.603	4.757
307.603	4.738
308.603	4.716
309.603	4.691
310.603	4.663
311.603	4.632
312.603	4.597
313.603	4.558
314.603	4.515
315.603	4.468
316.603	4.417
316.606	4.417
317.606	4.362
318.606	4.308
319.606	4.245
320.606	4.173
