Uv/Vis Spectrum: 6-Methylfulvene
Formula: C7H8
CAS: 3839-50-7
Boiling point: 24-25/ 14 mm
Instrument: Beckman DK 2
Origin: INSTITUTE OF ENERGY PROBLEMS OF CHEMICAL PHYSICS, RAS
Wavelength (nm)	Logarithm epsilon
223.6	3.572
223.71	3.572
223.82	3.572
223.92	3.572
224.03	3.574
224.14	3.574
224.25	3.574
224.36	3.574
224.47	3.574
224.58	3.574
224.69	3.576
224.79	3.576
224.9	3.576
225.01	3.576
225.12	3.576
225.23	3.576
225.56	3.574
226.22	3.579
226.89	3.585
227.56	3.594
228.23	3.6
228.91	3.611
229.59	3.623
230.27	3.636
230.96	3.651
231.65	3.666
232.35	3.685
233.05	3.704
233.76	3.726
234.47	3.749
235.18	3.77
235.9	3.796
236.62	3.819
237.35	3.847
238.08	3.873
238.82	3.898
239.56	3.924
240.31	3.947
241.06	3.973
241.81	3.996
242.57	4.02
243.34	4.043
244.11	4.064
244.88	4.084
245.66	4.101
246.44	4.12
247.23	4.135
248.03	4.148
248.83	4.162
249.63	4.173
250.44	4.184
251.26	4.194
252.08	4.205
252.9	4.214
253.74	4.222
254.57	4.231
255.41	4.237
256.26	4.241
257.12	4.237
257.98	4.224
258.84	4.212
259.71	4.201
260.59	4.194
261.47	4.188
262.36	4.18
263.25	4.165
264.15	4.139
265.06	4.105
265.98	4.069
266.89	4.022
267.82	3.971
268.75	3.932
269.69	3.907
270.64	3.883
271.59	3.847
272.55	3.792
273.51	3.694
274.49	3.566
275.47	3.457
276.45	3.361
277.45	3.253
278.45	3.125
279.46	2.997
279.91	2.926
280.21	2.874
280.47	2.831
280.7	2.8
281.14	2.73
281.73	2.63
282.35	2.535
282.96	2.436
283.42	2.362
283.66	2.329
283.92	2.298
284.23	2.25
284.74	2.199
285.13	2.168
286.01	2.108
286.9	2.083
287.79	2.066
288.69	2.053
289.59	2.042
290.5	2.038
291.41	2.036
292.33	2.036
293.3	2.039
294.24	2.043
295.12	2.047
295.99	2.052
297	2.06
297.97	2.07
298.94	2.083
299.9	2.095
300.88	2.108
301.86	2.121
302.85	2.132
303.84	2.144
304.84	2.155
305.84	2.168
306.86	2.178
307.88	2.189
308.9	2.202
309.94	2.213
310.98	2.223
312.03	2.234
313.08	2.245
314.14	2.255
315.21	2.266
316.29	2.274
317.37	2.285
318.46	2.294
319.56	2.304
320.67	2.313
321.78	2.321
322.9	2.33
324.03	2.34
325.17	2.349
326.32	2.357
327.47	2.366
328.63	2.375
329.8	2.383
330.98	2.389
332.17	2.398
333.36	2.404
334.57	2.413
335.78	2.419
337	2.426
338.23	2.432
339.47	2.438
340.72	2.445
341.98	2.447
343.24	2.453
344.52	2.458
345.81	2.462
347.1	2.466
348.41	2.468
349.72	2.473
351.05	2.475
352.38	2.477
353.73	2.481
355.09	2.481
356.45	2.483
357.83	2.485
359.22	2.485
360.62	2.485
362.03	2.485
363.45	2.483
364.88	2.483
366.32	2.481
367.77	2.479
369.24	2.477
370.72	2.475
372.21	2.473
373.71	2.47
375.22	2.466
376.75	2.462
378.29	2.456
379.84	2.451
381.4	2.445
382.98	2.436
384.57	2.43
386.17	2.424
387.79	2.415
389.42	2.404
391.06	2.396
392.72	2.385
394.39	2.372
396.08	2.362
397.78	2.347
399.5	2.334
401.23	2.317
402.97	2.306
404.73	2.291
406.51	2.274
408.3	2.259
410.11	2.242
411.93	2.225
413.77	2.208
