Uv/Vis Spectrum: Triphenylphopine Sulfide
Formula: C18H15PS
CAS: 3878-45-3
Melting point: 161
Instrument: Zeiss PMQ II
Origin: INSTITUTE OF ENERGY PROBLEMS OF CHEMICAL PHYSICS, RAS
Wavelength (nm)	Logarithm epsilon
202.85	4.748
204.03	4.731
205.2	4.714
206.38	4.697
207.55	4.677
208.72	4.66
209.73	4.64
210.74	4.619
211.74	4.599
212.75	4.579
213.59	4.555
214.77	4.534
215.77	4.514
216.78	4.494
217.95	4.477
219.3	4.463
220.81	4.453
222.15	4.439
223.49	4.429
224.83	4.415
226.01	4.395
227.18	4.375
228.02	4.351
228.86	4.327
229.7	4.303
230.54	4.279
231.38	4.252
232.21	4.225
232.89	4.198
233.72	4.171
234.4	4.143
235.07	4.116
235.74	4.089
236.58	4.062
237.25	4.035
238.09	4.011
238.93	3.987
239.77	3.963
240.6	3.939
241.61	3.916
242.45	3.892
243.46	3.871
244.63	3.854
245.97	3.837
247.32	3.824
248.83	3.82
250.34	3.817
251.85	3.817
253.36	3.817
254.87	3.814
256.38	3.807
257.89	3.803
259.4	3.803
260.91	3.8
262.25	3.79
263.76	3.783
265.1	3.769
266.44	3.752
267.79	3.739
269.13	3.722
270.3	3.702
271.48	3.685
272.65	3.664
273.83	3.644
275	3.627
276.01	3.606
277.01	3.586
277.85	3.559
278.69	3.532
279.36	3.504
279.87	3.477
280.37	3.45
281.04	3.423
281.54	3.396
282.21	3.368
282.72	3.341
283.22	3.314
283.72	3.287
284.23	3.26
284.9	3.232
285.4	3.205
285.91	3.178
286.58	3.151
287.08	3.124
287.58	3.096
288.26	3.069
288.93	3.042
289.6	3.015
290.27	2.988
291.11	2.96
291.78	2.933
292.28	2.906
292.95	2.879
293.46	2.852
293.96	2.825
294.63	2.797
295.13	2.767
295.64	2.74
296.14	2.712
296.81	2.685
297.32	2.658
297.82	2.631
298.32	2.604
298.83	2.576
299.5	2.549
300.17	2.522
300.84	2.495
301.51	2.468
302.18	2.44
303.02	2.413
303.69	2.386
304.53	2.359
305.03	2.332
305.54	2.304
306.04	2.277
306.54	2.25
306.88	2.219
307.38	2.192
307.89	2.165
308.05	2.134
308.39	2.104
308.72	2.073
309.23	2.046
309.73	2.016
310.07	1.985
310.57	1.958
311.07	1.927
311.58	1.897
311.91	1.866
312.42	1.839
312.75	1.808
313.26	1.778
313.59	1.747
314.09	1.716
314.43	1.686
314.77	1.655
315.27	1.625
315.6	1.594
315.94	1.563
316.28	1.533
316.78	1.506
316.95	1.475
317.45	1.444
317.79	1.414
318.29	1.383
318.62	1.353
319.13	1.325
319.46	1.295
319.8	1.264
320.3	1.237
320.64	1.207
321.14	1.179
321.64	1.149
321.98	1.118
322.48	1.091
322.82	1.06
323.32	1.033
323.66	1.003
324.16	0.975
324.66	0.945
325.17	0.918
325.67	0.887
326.17	0.856
326.51	0.826
327.01	0.799
327.68	0.771
328.19	0.741
328.69	0.714
