Uv/Vis Spectrum: Propane, 1-(methylthio)-
Formula: C4H10S
CAS: 3877-15-4
Boiling point: 95.6
Instrument: unknown
Origin: INSTITUTE OF ENERGY PROBLEMS OF CHEMICAL PHYSICS, RAS
Wavelength (nm)	Logarithm epsilon
207.47	3.035
208.83	3.048
210.36	3.061
211.89	3.066
213.42	3.061
214.61	3.04
215.63	3.014
216.31	2.98
216.82	2.945
217.32	2.911
217.66	2.872
218.17	2.833
218.51	2.795
219.02	2.76
219.53	2.726
219.87	2.687
220.38	2.653
220.89	2.618
221.4	2.579
221.74	2.541
222.25	2.506
222.76	2.468
223.1	2.429
223.61	2.395
224.12	2.36
224.46	2.321
224.97	2.287
225.48	2.253
225.99	2.218
226.5	2.179
226.84	2.141
227.35	2.106
227.86	2.072
228.37	2.038
228.7	1.999
229.21	1.964
229.72	1.926
230.23	1.887
230.74	1.853
231.25	1.818
231.59	1.779
232.1	1.745
232.61	1.706
233.12	1.668
233.63	1.629
234.14	1.594
234.65	1.556
235.16	1.517
235.67	1.483
236.18	1.448
236.69	1.414
237.37	1.379
237.88	1.345
238.39	1.311
238.9	1.276
239.58	1.242
240.25	1.207
240.76	1.173
241.44	1.138
241.95	1.104
242.63	1.07
243.31	1.035
243.99	1.001
244.84	0.966
245.35	0.932
246.2	0.902
246.71	0.868
247.56	0.837
248.41	0.803
249.26	0.773
249.94	0.738
250.79	0.708
251.64	0.674
252.48	0.644
253.33	0.614
254.18	0.584
255.03	0.553
256.05	0.523
257.07	0.493
258.09	0.463
259.11	0.437
260.13	0.407
261.32	0.381
262.34	0.356
263.35	0.33
264.54	0.308
265.73	0.282
267.09	0.261
268.28	0.239
