Uv/Vis Spectrum: 2-(phenylamino)-5-(phenylmethylene)-4(5H)-thiazolone
Formula: C16H12N2OS
CAS: 38771-64-1
Melting point: 261
Instrument: SF-8
Origin: INSTITUTE OF ENERGY PROBLEMS OF CHEMICAL PHYSICS, RAS
Wavelength (nm)	Logarithm epsilon
221.047	4.124
221.223	4.125
223.223	4.144
225.223	4.168
227.223	4.197
229.223	4.225
231.223	4.244
233.223	4.246
235.223	4.227
236.577	4.207
238.577	4.169
240.577	4.135
242.577	4.104
244.577	4.075
246.577	4.047
248.577	4.02
250.577	3.993
252.577	3.967
254.577	3.941
256.577	3.916
258.577	3.892
260.577	3.87
262.577	3.851
264.577	3.834
266.577	3.82
268.577	3.81
270.577	3.804
272.577	3.803
274.577	3.806
276.577	3.814
278.577	3.826
280.577	3.843
282.577	3.863
284.577	3.887
286.577	3.912
286.696	3.912
288.696	3.939
290.696	3.966
292.696	3.993
294.696	4.021
296.696	4.049
298.696	4.078
300.696	4.106
302.696	4.135
304.696	4.163
306.696	4.19
308.696	4.216
310.696	4.242
312.696	4.267
314.696	4.292
316.696	4.317
318.696	4.342
320.696	4.367
322.696	4.392
324.812	4.417
326.697	4.44
328.697	4.463
330.697	4.472
332.697	4.461
334.697	4.432
336.697	4.387
338.697	4.33
340.521	4.266
342.521	4.197
344.521	4.088
346.521	3.943
348.521	3.78
350.521	3.613
