Uv/Vis Spectrum: 1-Butyl-1,2,3,4-tetrahydronaphthalene
Formula: C14H20
CAS: 38857-76-0
Instrument: unknown
Origin: INSTITUTE OF ENERGY PROBLEMS OF CHEMICAL PHYSICS, RAS
Wavelength (nm)	Logarithm epsilon
228.08	2.399
228.12	2.39
228.2	2.355
228.23	2.337
228.24	2.332
228.28	2.322
228.31	2.309
228.48	2.247
228.62	2.203
228.81	2.142
228.94	2.102
229.12	2.068
229.33	2.029
229.5	1.997
229.67	1.963
229.81	1.933
230.01	1.896
230.18	1.872
230.35	1.847
230.52	1.824
230.65	1.807
230.86	1.785
231.03	1.764
231.19	1.744
231.36	1.729
231.53	1.714
231.7	1.704
231.87	1.693
232.04	1.685
232.21	1.679
232.38	1.672
232.55	1.667
232.72	1.662
232.89	1.658
233.06	1.654
233.23	1.65
233.4	1.647
233.57	1.646
233.74	1.644
233.91	1.643
234.08	1.643
234.25	1.644
234.41	1.645
234.58	1.646
234.76	1.648
234.92	1.65
235.11	1.653
235.28	1.655
235.45	1.658
235.61	1.661
235.77	1.665
235.94	1.669
236.11	1.672
236.28	1.677
236.45	1.681
236.62	1.687
236.79	1.691
236.96	1.696
237.13	1.7
237.3	1.705
237.47	1.71
237.64	1.714
237.81	1.72
237.98	1.725
238.15	1.729
238.32	1.735
238.49	1.741
238.66	1.748
238.83	1.756
239	1.764
239.17	1.772
239.34	1.781
239.51	1.788
239.68	1.797
239.85	1.808
240.02	1.816
240.18	1.828
240.35	1.838
240.52	1.849
240.69	1.858
240.86	1.866
241.03	1.874
241.2	1.88
241.37	1.886
241.54	1.891
241.71	1.896
241.88	1.901
242.05	1.906
242.22	1.91
242.39	1.915
242.56	1.92
242.73	1.925
242.9	1.932
243.07	1.938
243.24	1.946
243.41	1.957
243.58	1.971
243.75	1.986
243.92	2.001
244.09	2.01
244.26	2.019
244.43	2.027
244.59	2.035
244.76	2.043
244.93	2.049
245.1	2.057
245.27	2.064
245.44	2.069
245.61	2.076
245.78	2.083
245.95	2.09
246.12	2.097
246.29	2.104
246.46	2.11
246.63	2.115
246.8	2.121
246.97	2.127
247.14	2.133
247.31	2.14
247.48	2.146
247.65	2.151
247.82	2.157
247.99	2.163
248.16	2.168
248.33	2.173
248.5	2.18
248.67	2.184
248.84	2.19
249.01	2.195
249.16	2.201
249.34	2.208
249.5	2.214
249.68	2.223
249.85	2.232
250.02	2.24
250.19	2.249
250.36	2.258
250.53	2.266
250.7	2.273
251.08	2.29
251.29	2.297
251.51	2.306
251.72	2.314
251.92	2.321
252.14	2.33
252.36	2.338
252.57	2.345
252.78	2.353
252.99	2.358
253.2	2.364
253.42	2.372
253.61	2.378
253.84	2.383
254.06	2.389
254.26	2.392
254.48	2.397
254.69	2.403
254.89	2.409
255.1	2.415
255.33	2.421
255.54	2.429
255.75	2.438
255.96	2.445
256.17	2.455
256.38	2.462
256.6	2.471
256.81	2.482
257.02	2.492
257.23	2.5
257.44	2.508
257.66	2.516
257.87	2.523
258.08	2.529
258.29	2.534
258.5	2.541
258.72	2.546
258.93	2.551
259.14	2.554
259.35	2.556
259.56	2.56
259.77	2.563
259.99	2.564
260.2	2.563
260.41	2.561
260.62	2.56
260.84	2.559
261.05	2.559
261.26	2.56
261.47	2.562
261.68	2.566
261.9	2.569
262.11	2.573
262.32	2.574
262.53	2.575
262.74	2.577
262.96	2.578
263.17	2.583
263.38	2.588
263.59	2.594
263.8	2.602
264.02	2.61
264.23	2.619
264.44	2.627
264.65	2.636
264.86	2.646
265.08	2.657
265.29	2.666
265.5	2.676
265.71	2.687
265.92	2.693
266.14	2.698
266.35	2.701
266.56	2.702
266.77	2.701
266.98	2.694
267.18	2.682
267.41	2.662
267.62	2.643
267.83	2.622
268.04	2.605
268.26	2.58
268.47	2.559
268.68	2.542
268.89	2.524
269.11	2.506
269.32	2.489
269.53	2.477
269.74	2.463
269.95	2.451
270.17	2.438
270.38	2.43
270.59	2.425
270.8	2.421
271.01	2.42
271.23	2.42
271.44	2.423
271.65	2.43
271.86	2.446
272.07	2.496
272.29	2.556
272.5	2.608
272.71	2.66
272.92	2.687
273.13	2.704
273.35	2.711
273.56	2.714
273.77	2.713
273.98	2.706
274.19	2.683
274.41	2.643
274.62	2.59
274.85	2.533
275.07	2.472
275.29	2.41
275.54	2.341
275.73	2.285
275.87	2.244
276.02	2.201
276.21	2.154
276.45	2.098
276.68	2.043
276.95	1.987
277.16	1.937
277.37	1.886
277.59	1.835
277.8	1.794
278.01	1.752
278.22	1.713
