Uv/Vis Spectrum: Pentafluoroanisole
Formula: C7H3F5O
CAS: 389-40-2
Melting point: -37
Boiling point: 138.5
Instrument: Spectrophotometer SF-16
Origin: INSTITUTE OF ENERGY PROBLEMS OF CHEMICAL PHYSICS, RAS
Wavelength (nm)	Logarithm epsilon
230	2.97
231	2.96
232	2.95
233	2.94
234	2.92
235	2.91
236	2.89
237	2.88
238	2.85
239	2.82
240	2.79
241	2.76
242	2.72
243	2.68
244	2.65
245	2.63
246	2.6
247	2.58
248	2.57
249	2.56
250	2.55
251	2.55
252	2.54
253	2.53
254	2.53
255	2.52
256	2.52
257	2.51
258	2.51
259	2.51
260	2.5
261	2.49
262	2.49
263	2.48
264	2.48
265	2.47
266	2.46
267	2.45
268	2.42
269	2.39
270	2.34001
271	2.3
272	2.26
273	2.22
274	2.17
275	2.12
276	2.05
277	1.99
278	1.94
279	1.91
