Uv/Vis Spectrum: 2a,7b-dihydro-7b-methoxy-1-phenylbenzo[b]cyclobuta[d]thiophene
Formula: C17H14OS
CAS: 39077-57-1
Melting point: 60-61
Instrument: Leitz-Unicam SP 800
Origin: INSTITUTE OF ENERGY PROBLEMS OF CHEMICAL PHYSICS, RAS
Wavelength (nm)	Logarithm epsilon
257.241	4.289
260.593	4.251
264.033	4.195
267.566	4.118
271.194	4.019
274.921	3.902
278.753	3.78
278.758	3.779
282.699	3.63
286.752	3.521
290.923	3.47
295.217	3.465
299.64	3.473
304.198	3.453
308.896	3.368
313.742	3.191
318.742	2.912
323.587	2.73
328.908	2.611
334.407	2.544
340.094	2.496
345.977	2.442
352.068	2.37
358.376	2.279
364.915	2.173
371.697	2.052
378.736	1.891
386.046	1.618
