Uv/Vis Spectrum: 1-methyl-N-phenyl-1H-indole-2-carbaxamide
Formula: C16H14N2O
CAS: 39167-76-5
Melting point: 166
Instrument: SF-16
Origin: INSTITUTE OF ENERGY PROBLEMS OF CHEMICAL PHYSICS, RAS
Wavelength (nm)	Logarithm epsilon
219.465	4.422
220.465	4.406
221.465	4.394
222.465	4.384
223.465	4.375
224.465	4.368
225.465	4.361
226.465	4.353
227.465	4.346
228.465	4.337
229.465	4.327
230.465	4.315
231.465	4.302
232.465	4.287
233.465	4.269
234.465	4.249
235.465	4.226
236.465	4.202
237.465	4.174
238.465	4.144
239.465	4.112
240.465	4.078
241.339	4.037
242.339	4.019
243.339	3.981
244.339	3.93
245.339	3.874
246.339	3.817
247.339	3.761
248.339	3.711
249.339	3.667
250.339	3.63
251.339	3.601
252.339	3.58
253.339	3.566
254.339	3.559
255.339	3.557
256.339	3.559
257.339	3.565
258.339	3.574
259.339	3.585
260.339	3.597
261.339	3.61
262.339	3.623
263.339	3.636
264.339	3.65
265.339	3.665
266.339	3.679
267.223	3.692
268.223	3.706
269.223	3.728
270.223	3.755
271.223	3.786
272.223	3.818
273.223	3.851
274.223	3.883
275.223	3.913
276.223	3.942
277.223	3.97
278.223	3.996
279.223	4.02
280.223	4.044
281.223	4.067
282.223	4.091
283.223	4.114
284.223	4.137
285.223	4.16
286.223	4.184
287.223	4.206
288.185	4.226
289.185	4.241
290.185	4.256
291.185	4.271
292.185	4.286
293.185	4.3
294.185	4.314
295.185	4.328
296.185	4.341
297.185	4.352
298.185	4.363
299.185	4.373
300.185	4.381
301.185	4.389
302.185	4.394
303.185	4.399
304.185	4.402
305.185	4.403
306.185	4.403
307.185	4.401
308.185	4.398
309.185	4.393
310.185	4.386
311.185	4.378
312.185	4.369
313.185	4.358
314.185	4.346
315.185	4.333
316.185	4.318
317.185	4.303
318.185	4.287
319.185	4.271
320.185	4.254
320.448	4.252
321.448	4.232
322.448	4.209
323.448	4.183
324.448	4.154
325.448	4.125
326.448	4.094
327.448	4.062
328.448	4.031
329.448	4.001
330.448	3.971
331.448	3.944
332.448	3.919
