Uv/Vis Spectrum: 2-methoxyquinoxaline
Formula: C9H8N2O
CAS: 39209-88-6
Instrument: Hitachi EPS-3
Origin: INSTITUTE OF ENERGY PROBLEMS OF CHEMICAL PHYSICS, RAS
Wavelength (nm)	Logarithm epsilon
213.102	3.976
214.102	3.984
215.102	3.993
216.102	4.003
217.102	4.015
218.102	4.027
219.102	4.04
220.102	4.051
221.102	4.061
222.102	4.068
223.102	4.071
224.102	4.068
225.102	4.059
226.102	4.043
227.102	4.02
228.102	3.991
229.102	3.956
230.102	3.918
231.03	3.889
232.03	3.848
233.03	3.817
234.03	3.798
235.03	3.79
236.03	3.79
237.03	3.799
238.03	3.814
239.03	3.834
240.03	3.858
241.03	3.884
242.03	3.913
243.03	3.946
243.157	3.956
244.157	3.978
245.157	4.024
246.157	4.078
247.157	4.131
248.157	4.177
249.157	4.213
250.157	4.237
251.157	4.252
252.157	4.258
253.157	4.254
254.157	4.239
255.157	4.207
256.157	4.149
256.555	4.099
256.867	4.067
257.867	3.986
258.867	3.858
259.867	3.706
260.867	3.551
261.867	3.413
262.867	3.307
263.867	3.249
265.81	3.119
265.83	3.12
266.83	3.061
267.83	3.012
268.83	2.971
269.83	2.938
270.83	2.912
271.83	2.892
272.83	2.876
273.83	2.864
274.83	2.855
275.83	2.849
276.83	2.845
277.83	2.843
278.83	2.842
279.83	2.843
280.83	2.845
281.83	2.85
282.83	2.857
283.83	2.866
284.83	2.879
285.83	2.897
286.83	2.921
287.83	2.952
288.767	2.983
289.767	3.053
290.767	3.104
291.767	3.143
292.767	3.173
293.767	3.198
294.767	3.222
295.767	3.245
296.767	3.269
297.767	3.294
298.767	3.318
299.767	3.339
300.613	3.359
301.613	3.381
302.613	3.403
303.613	3.424
304.613	3.446
305.613	3.467
306.613	3.488
307.613	3.509
308.613	3.529
309.613	3.549
310.613	3.569
311.613	3.588
312.613	3.607
313.613	3.625
314.613	3.643
315.395	3.657
316.395	3.673
317.395	3.689
318.395	3.704
319.395	3.719
320.395	3.732
321.395	3.745
322.395	3.756
323.395	3.766
324.395	3.776
325.395	3.784
326.395	3.791
327.395	3.797
328.395	3.802
329.395	3.805
330.395	3.808
331.395	3.809
332.395	3.809
333.395	3.808
334.395	3.806
335.395	3.804
336.395	3.8
337.395	3.795
338.395	3.79
339.395	3.784
340.395	3.777
341.395	3.77
342.395	3.762
343.395	3.754
344.395	3.746
345.395	3.738
345.45	3.738
346.45	3.73
347.45	3.723
348.45	3.715
349.45	3.708
350.45	3.702
351.45	3.697
352.45	3.693
353.45	3.689
354.45	3.687
355.45	3.685
356.45	3.683
357.45	3.681
358.45	3.679
359.45	3.676
360.45	3.672
361.45	3.666
362.45	3.658
363.45	3.648
364.45	3.635
365.45	3.618
366.45	3.597
367.45	3.573
368.45	3.543
368.65	3.533
369.65	3.497
370.65	3.464
371.65	3.434
372.65	3.407
373.65	3.383
374.65	3.363
375.65	3.345
376.65	3.33
377.65	3.318
378.65	3.309
379.65	3.304
380.65	3.301
