Uv/Vis Spectrum: 5,8-dihydro-6,7-pteridinedione
Formula: C6H4N4O2
CAS: 3947-46-4
Melting point: not melt below 350
Instrument: Cary 15
Origin: INSTITUTE OF ENERGY PROBLEMS OF CHEMICAL PHYSICS, RAS
Wavelength (nm)	Logarithm epsilon
220.59	3.945
221.59	3.885
222.59	3.826
223.59	3.77
224.59	3.719
225.59	3.674
226.59	3.636
227.59	3.604
228.59	3.578
229.59	3.558
230.59	3.544
231.59	3.535
232.59	3.531
233.59	3.53
234.59	3.533
235.59	3.541
236.59	3.552
237.59	3.57
237.917	3.575
238.917	3.592
239.917	3.608
240.917	3.622
241.917	3.635
242.917	3.648
243.917	3.659
244.917	3.67
245.917	3.68
246.917	3.688
247.917	3.695
248.917	3.7
249.917	3.702
250.917	3.702
251.917	3.698
252.917	3.692
253.917	3.683
254.917	3.672
255.917	3.659
256.92	3.646
257.59	3.637
258.259	3.625
258.929	3.612
259.599	3.605
260.268	3.596
260.938	3.585
261.608	3.576
262.277	3.567
262.947	3.56
263.617	3.555
264.286	3.551
264.956	3.548
265.625	3.548
266.295	3.553
266.965	3.558
267.634	3.562
268.304	3.569
268.974	3.578
269.643	3.585
270.313	3.596
270.983	3.607
271.652	3.623
272.322	3.639
272.991	3.655
273.661	3.669
274.331	3.682
275	3.698
275.67	3.718
276.34	3.734
277.009	3.75
277.679	3.766
278.349	3.782
279.018	3.807
279.688	3.823
280.358	3.836
281.027	3.852
281.697	3.868
282.366	3.884
283.036	3.9
283.706	3.913
284.375	3.927
285.045	3.94
285.715	3.949
286.384	3.963
287.054	3.974
287.724	3.986
288.393	3.999
289.063	4.011
289.732	4.022
290.402	4.033
291.072	4.045
291.741	4.056
292.411	4.067
293.081	4.079
293.75	4.092
294.42	4.104
295.09	4.11
295.759	4.119
296.429	4.126
297.099	4.133
297.768	4.138
298.438	4.144
299.107	4.149
299.777	4.156
300.447	4.153
301.116	4.151
301.786	4.144
302.456	4.14
303.125	4.131
303.795	4.122
304.465	4.113
305.134	4.101
305.804	4.092
306.473	4.083
307.143	4.072
307.813	4.06
308.482	4.051
309.152	4.045
309.822	4.038
310.491	4.031
311.161	4.024
311.831	4.015
312.5	4.002
313.17	3.993
313.839	3.981
314.509	3.968
315.179	3.945
315.848	3.925
316.518	3.9
317.188	3.877
317.857	3.845
318.527	3.818
319.197	3.802
319.866	3.773
320.536	3.746
321.206	3.718
321.875	3.703
322.545	3.675
323.214	3.653
323.884	3.628
324.554	3.612
325.223	3.591
325.893	3.571
326.563	3.548
327.232	3.526
327.902	3.51
328.572	3.492
329.241	3.469
329.911	3.446
330.58	3.428
331.25	3.41
331.92	3.388
332.589	3.365
333.259	3.34
333.929	3.324
334.598	3.297
335.268	3.272
335.938	3.247
336.607	3.229
337.277	3.202
337.946	3.181
338.616	3.154
339.286	3.138
339.955	3.111
340.625	3.086
341.295	3.061
341.964	3.045
342.634	3.021
343.304	2.991
343.973	2.975
344.643	2.957
345.313	2.941
345.982	2.921
346.652	2.905
347.321	2.887
347.991	2.871
