Uv/Vis Spectrum: beta-chloro-N-phenyl-alpha-(phenylthio)benzenepropanamide
Formula: C21H18ClNOS
CAS: 39781-55-0
Instrument: SF-4A
Origin: INSTITUTE OF ENERGY PROBLEMS OF CHEMICAL PHYSICS, RAS
Wavelength (nm)	Logarithm epsilon
222.197	4.119
223.697	4.096
225.197	4.081
226.697	4.07
228.197	4.063
229.697	4.059
231.197	4.057
232.697	4.057
234.197	4.06
235.697	4.066
237.197	4.076
238.635	4.088
240.135	4.104
241.635	4.123
243.135	4.14
244.635	4.152
246.135	4.157
247.635	4.156
249.135	4.148
250.635	4.136
252.135	4.12
253.635	4.103
255.135	4.086
256.635	4.069
258.135	4.054
259.635	4.037
261.144	4.012
262.644	3.986
264.144	3.958
265.644	3.926
267.144	3.887
268.644	3.843
270.144	3.795
271.644	3.744
273.144	3.692
274.644	3.64
276.144	3.588
277.644	3.537
279.144	3.486
280.644	3.434
282.144	3.378
283.644	3.318
285.144	3.251
286.644	3.176
288.144	3.094
289.644	3.007
291.144	2.921
