Uv/Vis Spectrum: 1,1'-Biphenyl, 2,6-dimethyl-
Formula: C14H14
CAS: 3976-34-9
Melting point: - 5
Boiling point: 262.5
Instrument: unknown
Origin: INSTITUTE OF ENERGY PROBLEMS OF CHEMICAL PHYSICS, RAS
Wavelength (nm)	Logarithm epsilon
225.5	3.918
225.55	3.917
225.59	3.916
225.63	3.915
225.68	3.914
225.72	3.914
225.76	3.913
225.81	3.912
225.85	3.911
225.89	3.91
225.93	3.909
225.98	3.908
226.15	3.901
226.36	3.894
226.58	3.889
226.79	3.881
227.01	3.875
227.22	3.866
227.44	3.86
227.65	3.854
227.87	3.846
228.08	3.841
228.3	3.833
228.51	3.826
228.73	3.82
228.94	3.815
229.16	3.809
229.37	3.803
229.59	3.795
229.8	3.79
230.02	3.786
230.23	3.78
230.45	3.774
230.66	3.769
230.88	3.765
231.09	3.759
231.31	3.754
231.52	3.748
231.74	3.743
231.95	3.739
232.17	3.734
232.38	3.728
232.59	3.724
232.8	3.72
233.08	3.715
233.32	3.71
233.47	3.707
233.69	3.702
233.9	3.698
234.1	3.693
234.32	3.688
234.53	3.683
234.75	3.678
234.96	3.672
235.17	3.668
235.4	3.663
235.61	3.657
235.83	3.652
236.04	3.647
236.25	3.642
236.47	3.636
236.69	3.63
236.9	3.625
237.12	3.619
237.33	3.612
237.55	3.605
237.76	3.598
237.98	3.592
238.17	3.585
238.41	3.578
238.62	3.571
238.84	3.564
239.07	3.555
239.27	3.548
239.48	3.541
239.7	3.532
239.91	3.524
240.13	3.516
240.34	3.507
240.56	3.498
240.77	3.49
240.99	3.481
241.2	3.473
241.42	3.463
241.65	3.454
241.85	3.445
242.06	3.435
242.28	3.426
242.49	3.417
242.71	3.407
242.89	3.399
243.14	3.389
243.36	3.38
243.59	3.37
243.78	3.362
244.01	3.353
244.21	3.343
244.43	3.334
244.61	3.326
244.86	3.316
245.07	3.305
245.28	3.297
245.5	3.287
245.72	3.279
245.93	3.27
246.15	3.261
246.36	3.251
246.58	3.244
246.79	3.234
247.01	3.226
247.22	3.215
247.44	3.207
247.65	3.2
247.87	3.19
248.08	3.18
248.3	3.174
248.51	3.163
248.73	3.156
248.94	3.147
249.16	3.139
249.37	3.129
249.59	3.121
249.8	3.112
250.02	3.104
250.23	3.095
250.45	3.088
250.66	3.079
250.88	3.071
251.09	3.061
251.31	3.055
251.52	3.045
251.74	3.036
251.95	3.028
252.17	3.019
252.38	3.008
252.6	3
252.81	2.991
253.03	2.981
253.24	2.971
253.46	2.961
253.67	2.954
253.89	2.945
254.1	2.934
254.32	2.925
254.53	2.915
254.75	2.906
254.96	2.897
255.18	2.886
255.39	2.88
255.61	2.87
255.82	2.861
256.04	2.855
256.25	2.847
256.47	2.84
256.68	2.833
256.9	2.831
257.11	2.831
257.33	2.832
257.54	2.832
257.76	2.831
257.97	2.829
258.19	2.825
258.4	2.823
258.62	2.817
258.83	2.812
259.05	2.809
259.26	2.801
259.48	2.797
259.69	2.79
259.91	2.784
260.12	2.78
260.34	2.775
260.55	2.769
260.77	2.764
260.98	2.76
261.2	2.758
261.41	2.755
261.63	2.748
261.84	2.742
262.06	2.736
262.27	2.731
262.49	2.726
262.7	2.721
262.92	2.716
263.13	2.715
263.35	2.716
263.56	2.718
263.78	2.719
263.99	2.719
264.21	2.719
264.42	2.718
264.64	2.713
264.85	2.711
265.07	2.707
265.28	2.703
265.5	2.698
265.71	2.692
265.93	2.688
266.14	2.681
266.36	2.676
266.57	2.671
266.79	2.664
267	2.659
267.22	2.653
267.43	2.646
267.65	2.64
267.86	2.635
268.08	2.626
268.29	2.621
268.51	2.615
268.72	2.607
268.94	2.6
269.15	2.591
269.37	2.586
269.58	2.577
269.8	2.568
270.01	2.562
270.23	2.551
270.44	2.545
270.66	2.538
270.87	2.529
271.09	2.517
271.3	2.488
271.52	2.474
271.73	2.463
271.95	2.45
272.16	2.442
272.38	2.433
272.59	2.425
272.81	2.416
273.02	2.407
273.24	2.398
273.45	2.39
273.67	2.381
273.88	2.371
274.1	2.36
274.31	2.345
274.53	2.335
274.74	2.32
274.96	2.306
275.17	2.291
