Uv/Vis Spectrum: N-phenyl-2-thiophenesulfonamide
Formula: C10H9NO2S2
CAS: 39810-46-3
Melting point: 99-100
Instrument: Hitachi-Perkin-Elmer EPS-3T
Origin: INSTITUTE OF ENERGY PROBLEMS OF CHEMICAL PHYSICS, RAS
Wavelength (nm)	Logarithm epsilon
210.851	3.944
211.851	3.949
212.851	3.955
213.851	3.961
214.851	3.97
215.851	3.981
216.851	3.995
217.851	4.011
218.851	4.029
219.851	4.049
220.851	4.07
221.851	4.09
222.851	4.109
223.851	4.126
224.851	4.14
225.851	4.15
226.851	4.156
227.851	4.158
228.851	4.155
229.851	4.147
230.851	4.136
231.851	4.121
232.851	4.105
233.851	4.09
234.727	4.085
235.727	4.072
236.727	4.059
237.727	4.048
238.727	4.039
239.727	4.03
240.727	4.024
241.727	4.019
242.727	4.015
243.727	4.013
244.727	4.012
245.727	4.011
246.727	4.011
247.727	4.011
248.727	4.012
249.727	4.012
250.727	4.011
251.727	4.01
252.727	4.008
253.727	4.006
254.727	4.002
255.727	3.997
256.727	3.992
257.727	3.985
258.727	3.976
259.727	3.967
260.727	3.956
261.727	3.944
262.727	3.93
263.727	3.913
264.727	3.894
265.727	3.872
266.727	3.846
266.907	3.844
267.907	3.814
268.907	3.785
269.907	3.757
270.907	3.729
271.907	3.7
272.907	3.669
273.907	3.637
274.907	3.604
275.907	3.569
276.907	3.532
277.907	3.494
278.907	3.455
279.907	3.416
280.907	3.375
281.907	3.334
282.907	3.293
283.907	3.252
284.907	3.212
285.907	3.171
286.907	3.131
287.907	3.091
288.88	3.054
289.88	3.011
290.88	2.972
291.88	2.936
292.88	2.904
293.88	2.875
294.88	2.849
295.88	2.826
296.88	2.805
297.88	2.786
298.88	2.769
299.88	2.754
300.88	2.741
301.88	2.728
302.88	2.718
303.88	2.708
304.88	2.699
305.88	2.69
306.88	2.683
307.88	2.676
308.88	2.669
309.88	2.662
310.88	2.656
311.88	2.65
312.88	2.643
313.88	2.637
314.88	2.631
315.88	2.625
316.88	2.62
317.88	2.614
318.88	2.609
319.88	2.603
320.88	2.599
