Uv/Vis Spectrum: Thiophene,2,2'-thiobis-
Formula: C8H6S3
CAS: 3988-99-6
Boiling point: 129-130.5/ 2.2 mm
Origin: INSTITUTE OF ENERGY PROBLEMS OF CHEMICAL PHYSICS, RAS
Wavelength (nm)	Logarithm epsilon
217.91	3.867
218.22	3.869
218.53	3.871
218.84	3.872
219.15	3.876
219.45	3.878
219.76	3.88
221	3.897
222.54	3.922
224.09	3.944
225.63	3.953
227.17	3.979
228.72	4.018
230.26	4.047
231.81	4.067
233.35	4.085
234.89	4.093
236.44	4.095
237.98	4.09
239.53	4.084
241.07	4.075
242.61	4.062
244.16	4.052
245.7	4.037
247.24	4.02
248.79	4
250.33	3.975
251.88	3.96
253.42	3.955
254.97	3.947
256.51	3.931
258.11	3.922
259.6	3.914
261.14	3.915
262.69	3.92
264.23	3.92
265.77	3.907
267.32	3.895
268.86	3.878
270.37	3.857
271.95	3.833
273.49	3.806
275.04	3.773
276.58	3.738
278.12	3.694
279.67	3.659
281.23	3.612
282.78	3.551
284.3	3.492
285.84	3.446
287.39	3.395
288.93	3.325
290.48	3.27
292.02	3.225
293.56	3.182
295.66	3.118
298.2	3.024
301.28	2.872
302.83	2.793
304.2	2.725
305.92	2.638
307.46	2.534
