Uv/Vis Spectrum: Isonicotinic acid, 2-chloro-3-cyano-6-methyl-, ethyl ester
Formula: C10H9ClN2O2
CAS: 40108-12-1
Melting point: 65-66
Instrument: Hilger Uvispek
Origin: INSTITUTE OF ENERGY PROBLEMS OF CHEMICAL PHYSICS, RAS
Wavelength (nm)	Logarithm epsilon
204.63	4.376
205.83	4.393
207.2	4.407
208.75	4.413
210.29	4.41
211.66	4.396
213.04	4.38
214.06	4.359
214.92	4.335
215.61	4.308
216.12	4.281
216.64	4.254
217.32	4.227
217.84	4.2
218.52	4.173
219.21	4.146
219.72	4.118
220.24	4.091
221.1	4.068
221.95	4.044
223.16	4.023
224.53	4.013
226.07	4.003
227.62	4
229.16	4
230.7	3.993
232.25	3.99
233.62	3.979
234.99	3.966
236.19	3.949
237.22	3.925
238.08	3.901
238.94	3.874
239.79	3.847
240.48	3.82
241.17	3.793
241.68	3.766
242.19	3.739
242.71	3.712
243.4	3.684
243.74	3.654
244.25	3.627
244.6	3.596
245.11	3.569
245.45	3.539
245.97	3.508
246.31	3.478
246.65	3.447
247	3.417
247.51	3.389
248.03	3.359
248.37	3.328
248.88	3.301
249.4	3.271
249.74	3.24
250.26	3.21
250.6	3.179
251.11	3.149
251.46	3.118
251.97	3.091
252.66	3.064
253.34	3.037
254.03	3.01
254.89	2.986
255.92	2.962
257.29	2.945
258.83	2.942
260.38	2.952
261.75	2.962
262.95	2.979
263.98	3
265.01	3.02
266.04	3.04
266.89	3.064
267.92	3.088
268.95	3.111
269.98	3.135
271.01	3.155
271.87	3.179
272.9	3.203
273.93	3.227
274.78	3.25
275.64	3.274
276.5	3.298
277.36	3.322
278.21	3.349
279.24	3.372
280.1	3.396
281.13	3.42
281.99	3.447
283.02	3.467
284.05	3.491
285.07	3.511
286.1	3.535
287.13	3.559
288.33	3.579
289.53	3.596
290.74	3.613
291.94	3.634
293.14	3.651
294.51	3.664
295.88	3.678
297.25	3.691
298.8	3.698
300.34	3.705
301.88	3.705
303.43	3.695
304.8	3.681
306	3.664
307.2	3.647
308.4	3.627
309.43	3.606
310.29	3.583
311.15	3.559
312	3.532
312.69	3.505
313.38	3.478
314.06	3.45
314.58	3.423
315.09	3.393
315.61	3.366
315.95	3.335
316.46	3.308
316.81	3.278
317.15	3.247
317.49	3.217
317.84	3.186
318.18	3.155
318.35	3.125
318.69	3.094
318.86	3.064
319.04	3.033
319.38	3.003
319.55	2.972
319.72	2.942
319.89	2.911
320.07	2.881
320.41	2.85
320.58	2.82
320.75	2.789
320.92	2.759
321.09	2.728
321.27	2.698
321.61	2.667
321.78	2.637
322.12	2.606
322.3	2.576
322.47	2.545
322.64	2.515
322.81	2.484
322.98	2.454
323.32	2.423
323.5	2.393
323.67	2.362
323.84	2.332
324.01	2.301
324.35	2.271
324.52	2.24
324.7	2.209
324.87	2.179
325.21	2.148
325.38	2.118
325.55	2.087
325.73	2.057
325.9	2.026
326.24	1.996
326.41	1.965
326.75	1.935
326.93	1.904
327.1	1.874
327.27	1.843
327.44	1.813
327.78	1.782
327.96	1.752
328.13	1.721
328.3	1.691
328.47	1.66
328.64	1.63
