Uv/Vis Spectrum: (E)-(3,4-dihydro-6-methoxy-1(2H)-naphthalenylidene)acetic acid ethyl ester
Formula: C15H18O8
CAS: 40154-00-5
Melting point: oil
Instrument: unknown
Origin: INSTITUTE OF ENERGY PROBLEMS OF CHEMICAL PHYSICS, RAS
Wavelength (nm)	Logarithm epsilon
215.712	3.984
216.212	3.983
216.712	3.985
217.212	3.988
217.712	3.992
218.212	3.998
218.712	4.004
219.212	4.011
219.712	4.017
220.212	4.024
220.712	4.031
221.212	4.038
221.712	4.044
222.212	4.05
222.712	4.055
223.212	4.059
223.712	4.063
224.212	4.066
224.712	4.068
225.212	4.069
225.712	4.069
226.212	4.069
226.712	4.067
227.212	4.064
227.712	4.06
228.212	4.056
228.712	4.05
229.212	4.043
229.712	4.035
230.212	4.026
230.712	4.016
231.212	4.005
231.712	3.993
232.212	3.981
232.712	3.967
233.212	3.953
233.712	3.938
234.212	3.923
234.712	3.908
235.212	3.892
235.712	3.878
235.788	3.877
236.288	3.858
236.788	3.84
237.288	3.823
237.788	3.807
238.288	3.789
238.788	3.771
239.288	3.751
239.788	3.729
240.288	3.706
240.788	3.682
241.288	3.656
241.788	3.629
242.288	3.601
242.788	3.572
243.288	3.542
243.788	3.51
244.288	3.475
244.788	3.433
245.288	3.381
245.522	3.333
246.022	3.239
246.522	3.137
247.022	3.028
247.522	2.91
248.022	2.784
248.522	2.651
249.022	2.517
249.522	2.395
250.022	2.305
250.522	2.27
251.022	2.296
251.522	2.368
252.022	2.461
252.522	2.558
253.022	2.651
253.522	2.735
254.022	2.809
254.522	2.874
255.022	2.93
255.522	2.978
256.022	3.018
256.067	3.009
256.567	3.059
257.067	3.106
257.567	3.15
258.067	3.191
258.567	3.231
259.067	3.268
259.567	3.304
260.067	3.337
260.567	3.37
261.067	3.401
261.567	3.43
262.067	3.458
262.567	3.485
263.067	3.512
263.567	3.537
264.067	3.561
264.567	3.584
265.067	3.607
265.567	3.628
266.067	3.65
266.567	3.67
267.067	3.69
267.567	3.709
268.067	3.728
268.567	3.746
269.067	3.764
269.567	3.781
270.067	3.798
270.567	3.814
271.067	3.83
271.567	3.846
272.067	3.861
272.567	3.876
273.067	3.891
273.567	3.905
274.067	3.92
274.116	3.921
274.616	3.935
275.116	3.948
275.616	3.961
276.116	3.973
276.616	3.985
277.116	3.996
277.616	4.007
278.116	4.017
278.616	4.027
279.116	4.037
279.616	4.046
280.116	4.055
280.616	4.064
281.116	4.072
281.616	4.08
282.116	4.088
282.616	4.095
283.116	4.102
283.616	4.109
284.116	4.116
284.616	4.123
285.116	4.129
285.616	4.135
286.116	4.141
286.486	4.147
286.986	4.151
287.486	4.156
287.986	4.161
288.486	4.166
288.986	4.171
289.486	4.176
289.986	4.18
290.486	4.185
290.986	4.19
291.486	4.194
291.986	4.198
292.486	4.202
292.986	4.205
293.486	4.208
293.986	4.211
294.486	4.214
294.986	4.216
295.486	4.218
295.986	4.22
296.486	4.221
296.986	4.223
297.486	4.224
297.986	4.225
298.486	4.226
298.986	4.227
299.486	4.228
299.986	4.229
300.486	4.23
300.986	4.231
301.486	4.232
301.986	4.233
302.486	4.234
303.818	4.239
304.318	4.242
304.818	4.246
305.318	4.249
305.818	4.251
306.318	4.254
306.818	4.256
307.318	4.259
307.818	4.261
308.318	4.263
308.818	4.265
309.318	4.267
309.818	4.268
310.318	4.27
310.818	4.271
311.318	4.272
311.818	4.273
312.318	4.273
312.818	4.273
313.318	4.273
313.818	4.273
314.318	4.272
314.818	4.271
315.318	4.27
315.818	4.268
316.318	4.267
316.818	4.265
317.318	4.263
317.776	4.26
318.438	4.256
319.099	4.253
319.76	4.248
320.422	4.243
321.083	4.237
321.744	4.231
322.406	4.225
323.067	4.219
323.598	4.214
324.098	4.207
324.598	4.2
325.098	4.192
325.598	4.184
326.098	4.175
326.598	4.166
327.098	4.156
327.598	4.146
328.098	4.135
328.598	4.124
329.098	4.112
329.598	4.1
330.098	4.087
330.598	4.073
331.098	4.058
331.598	4.042
332.098	4.026
332.598	4.008
333.098	3.99
333.534	3.968
334.034	3.955
334.534	3.942
335.034	3.928
335.534	3.914
336.034	3.9
336.534	3.885
337.034	3.87
337.534	3.855
338.034	3.84
338.534	3.825
339.034	3.809
339.534	3.792
340.034	3.776
340.534	3.759
341.034	3.742
341.534	3.724
342.034	3.706
342.534	3.687
343.034	3.668
343.534	3.648
344.034	3.627
344.534	3.605
