Uv/Vis Spectrum: 1-(1-phenylcyklopentyl)ethanone
Formula: C13H16O
CAS: 4046-09-7
Melting point: 140
Instrument: unknown
Origin: INSTITUTE OF ENERGY PROBLEMS OF CHEMICAL PHYSICS, RAS
Wavelength (nm)	Logarithm epsilon
229.972	2.551
230.127	2.544
231.127	2.482
232.127	2.397
233.127	2.291
234.127	2.166
234.31	2.134
235.31	2.048
236.31	2.013
237.31	2.011
238.31	2.024
239.31	2.043
240.31	2.065
240.352	2.066
241.352	2.092
242.352	2.122
243.352	2.149
244.352	2.173
245.31	2.198
246.31	2.216
247.31	2.239
248.31	2.256
249.31	2.27
250.31	2.287
251.198	2.315
251.698	2.339
252.198	2.367
252.698	2.39
253.198	2.402
253.698	2.404
254.141	2.397
254.641	2.389
255.141	2.387
255.641	2.388
256.141	2.393
256.641	2.399
257.141	2.407
257.641	2.416
258.141	2.427
258.634	2.439
259.134	2.455
259.634	2.47
260.134	2.481
260.634	2.484
261.134	2.476
261.634	2.458
261.733	2.447
262.233	2.407
262.733	2.393
263.233	2.4
263.733	2.415
263.902	2.419
264.402	2.427
264.902	2.432
265.402	2.434
265.902	2.433
266.402	2.429
266.902	2.423
267.402	2.415
267.902	2.405
268.402	2.394
268.902	2.381
269.402	2.368
269.902	2.355
270.402	2.342
270.902	2.331
271.402	2.321
271.902	2.313
272.402	2.307
272.902	2.304
273.402	2.304
273.902	2.305
274.402	2.308
274.902	2.312
274.902	2.31
275.902	2.321
276.902	2.332
277.902	2.342
278.902	2.352
279.902	2.36
280.902	2.368
281.902	2.375
282.902	2.383
283.902	2.391
284.902	2.399
285.902	2.408
286.902	2.416
287.902	2.424
288.691	2.429
289.691	2.431
290.691	2.432
291.691	2.433
292.691	2.436
293.691	2.44
294.691	2.444
295.691	2.447
296.691	2.446
297.691	2.438
298.691	2.424
298.762	2.424
299.762	2.4
300.762	2.379
301.762	2.362
302.762	2.35
303.762	2.341
304.762	2.336
305.762	2.331
306.762	2.325
307.762	2.315
307.903	2.313
308.903	2.299
309.903	2.257
310.903	2.205
311.903	2.154
312.903	2.115
313.903	2.084
313.945	2.081
314.945	2.046
315.945	2.022
316.945	2.003
317.945	1.984
318.945	1.962
319.945	1.933
320.945	1.893
321.945	1.84
322.945	1.767
