Uv/Vis Spectrum: 6,7-dihydro-5H-benzocycloheptene-9-acetic acid ethyl ester
Formula: C15H18O2
CAS: 40494-51-7
Instrument: unknown
Origin: INSTITUTE OF ENERGY PROBLEMS OF CHEMICAL PHYSICS, RAS
Wavelength (nm)	Logarithm epsilon
219.711	4.067
220.711	3.97
221.711	3.877
222.614	3.809
223.614	3.787
224.614	3.782
225.614	3.786
226.614	3.795
227.614	3.804
228.614	3.813
229.614	3.823
230.614	3.834
231.614	3.847
232.614	3.863
233.614	3.881
234.614	3.9
234.806	3.901
235.806	3.917
236.806	3.932
237.806	3.947
238.806	3.96
239.806	3.971
240.806	3.981
241.806	3.987
242.806	3.992
243.806	3.993
244.806	3.993
245.806	3.989
246.806	3.984
247.806	3.976
248.806	3.966
249.61	3.957
250.61	3.946
251.61	3.928
252.61	3.905
253.61	3.878
254.61	3.847
255.61	3.814
256.61	3.778
257.61	3.741
258.61	3.704
259.61	3.668
260.61	3.633
261.61	3.6
262.61	3.571
263.61	3.543
264.61	3.517
265.61	3.49
266.446	3.469
267.446	3.439
268.446	3.409
269.446	3.378
270.446	3.348
271.446	3.317
272.446	3.287
273.446	3.256
274.446	3.226
275.446	3.196
276.446	3.166
277.446	3.136
278.446	3.106
279.446	3.077
280.446	3.049
281.446	3.02
282.446	2.993
283.446	2.965
284.446	2.939
285.446	2.912
286.446	2.887
287.446	2.861
288.446	2.836
289.446	2.81
290.446	2.785
291.446	2.758
292.446	2.731
293.446	2.703
294.446	2.672
