Uv/Vis Spectrum: 1,3-Cycloheptadiene
Formula: C7H10
CAS: 4054-38-0
Melting point: - 110.4
Boiling point: 120.5
Instrument: Beckman DU
Origin: INSTITUTE OF ENERGY PROBLEMS OF CHEMICAL PHYSICS, RAS
Wavelength (nm)	Logarithm epsilon
225.85	3.527
225.91	3.527
225.98	3.531
226.04	3.534
226.11	3.534
226.17	3.537
226.24	3.537
226.31	3.54
226.37	3.543
226.44	3.543
226.5	3.547
226.57	3.547
226.63	3.55
226.7	3.553
226.76	3.553
226.83	3.556
226.89	3.556
227.02	3.556
227.15	3.562
227.28	3.566
227.42	3.569
227.55	3.572
227.68	3.575
227.81	3.581
227.94	3.585
228.07	3.585
228.2	3.591
228.33	3.594
228.46	3.597
228.59	3.6
228.72	3.604
228.85	3.607
228.98	3.613
229.11	3.616
229.24	3.619
229.37	3.623
229.5	3.629
229.63	3.629
229.77	3.632
229.9	3.635
230.03	3.642
230.16	3.645
230.29	3.648
230.42	3.651
230.55	3.654
230.68	3.661
230.81	3.661
230.94	3.664
231.07	3.667
231.2	3.673
231.33	3.677
231.46	3.68
231.59	3.683
231.72	3.683
231.85	3.689
231.98	3.692
232.11	3.696
232.25	3.699
232.38	3.699
232.51	3.705
232.64	3.708
232.77	3.711
232.9	3.715
233.03	3.718
233.16	3.721
233.29	3.724
233.42	3.727
233.55	3.73
233.68	3.73
233.81	3.737
233.94	3.74
234.07	3.743
234.2	3.743
234.33	3.746
234.46	3.749
234.6	3.753
234.73	3.756
234.86	3.759
234.99	3.762
235.12	3.762
235.25	3.765
235.38	3.768
235.51	3.772
235.64	3.775
235.77	3.778
235.9	3.778
236.03	3.781
236.16	3.788
236.29	3.788
236.42	3.791
236.55	3.794
236.68	3.794
236.81	3.797
236.95	3.797
237.08	3.803
237.21	3.807
237.34	3.807
237.47	3.81
237.6	3.81
237.73	3.813
237.86	3.816
237.99	3.819
238.12	3.822
238.25	3.822
238.38	3.826
238.51	3.826
238.64	3.829
238.77	3.829
238.9	3.835
239.03	3.835
239.16	3.838
239.3	3.838
239.43	3.841
239.56	3.845
239.69	3.845
239.82	3.845
239.95	3.848
240.08	3.848
240.21	3.851
240.34	3.851
240.47	3.854
240.6	3.854
240.73	3.857
240.86	3.857
240.99	3.857
241.12	3.857
241.25	3.86
241.38	3.86
241.51	3.864
241.64	3.864
241.78	3.867
241.91	3.867
242.04	3.867
242.17	3.87
242.3	3.87
242.43	3.87
242.56	3.87
242.69	3.873
242.82	3.873
242.95	3.873
243.08	3.873
243.21	3.873
243.34	3.876
243.47	3.876
243.6	3.876
243.73	3.876
243.86	3.879
243.99	3.879
244.13	3.879
244.26	3.879
244.39	3.883
244.52	3.883
244.65	3.883
244.78	3.886
244.91	3.886
245.04	3.886
245.17	3.886
245.43	3.889
245.56	3.889
245.69	3.889
245.82	3.889
245.95	3.889
246.08	3.889
246.21	3.889
246.34	3.889
246.48	3.889
246.61	3.889
246.74	3.889
246.87	3.889
247	3.889
247.13	3.889
247.26	3.889
247.39	3.889
247.52	3.889
247.65	3.889
247.78	3.889
247.91	3.889
248.04	3.889
248.17	3.889
248.3	3.886
248.43	3.889
248.56	3.886
248.69	3.886
248.83	3.886
248.96	3.886
249.09	3.883
249.22	3.883
249.35	3.883
249.48	3.879
249.61	3.883
249.74	3.879
249.87	3.876
250	3.876
250.13	3.876
250.26	3.876
250.39	3.873
250.52	3.873
250.65	3.873
250.78	3.873
250.91	3.87
251.04	3.87
251.17	3.87
251.31	3.87
251.44	3.867
251.57	3.864
251.7	3.86
251.83	3.86
251.96	3.86
252.09	3.857
252.22	3.857
252.35	3.854
252.48	3.854
252.61	3.851
252.74	3.851
252.87	3.848
253	3.845
253.13	3.841
253.26	3.841
253.39	3.841
253.52	3.838
253.66	3.835
253.79	3.829
253.92	3.829
254.05	3.826
254.18	3.826
254.31	3.826
254.44	3.819
254.57	3.816
254.7	3.816
254.83	3.81
254.96	3.81
255.09	3.807
255.22	3.803
255.35	3.8
255.48	3.797
255.61	3.794
255.74	3.791
255.87	3.791
256.01	3.784
256.14	3.781
256.27	3.778
256.4	3.775
256.53	3.772
256.66	3.768
256.79	3.762
256.92	3.762
257.05	3.759
257.18	3.756
257.31	3.753
257.44	3.746
257.57	3.743
257.7	3.74
257.83	3.737
257.96	3.734
258.09	3.727
258.22	3.724
258.36	3.718
258.49	3.715
258.62	3.711
258.75	3.708
258.88	3.705
259.01	3.699
259.14	3.696
259.27	3.692
259.4	3.689
259.53	3.683
259.66	3.68
259.79	3.677
259.92	3.667
260.05	3.664
260.18	3.661
260.31	3.654
260.44	3.651
260.57	3.648
260.7	3.642
260.84	3.638
260.97	3.632
261.1	3.629
261.23	3.623
261.36	3.616
261.49	3.616
261.62	3.61
261.75	3.604
261.88	3.6
262.01	3.594
262.14	3.588
262.27	3.585
262.4	3.578
262.53	3.575
262.66	3.569
262.79	3.562
262.92	3.556
263.05	3.553
263.19	3.543
263.32	3.537
263.45	3.531
263.58	3.524
263.71	3.518
263.84	3.508
263.97	3.505
264.1	3.493
264.23	3.489
264.36	3.48
264.49	3.474
264.62	3.461
264.75	3.455
264.88	3.445
265.01	3.439
265.14	3.429
265.27	3.42
265.4	3.41
265.54	3.401
265.67	3.391
265.8	3.382
265.93	3.369
266.06	3.356
266.19	3.35
266.32	3.337
266.45	3.325
266.58	3.312
266.71	3.302
266.84	3.286
266.97	3.28
267.1	3.271
267.23	3.255
267.36	3.239
267.49	3.226
267.62	3.21
267.75	3.198
267.89	3.179
268.02	3.163
268.15	3.147
268.28	3.131
268.41	3.115
268.54	3.099
268.67	3.084
268.8	3.058
268.93	3.045
269.06	3.026
269.19	3.011
269.32	2.988
269.45	2.969
269.58	2.95
269.71	2.934
269.84	2.909
269.97	2.893
270.1	2.871
270.23	2.849
270.37	2.83
270.5	2.814
270.63	2.785
270.76	2.77
270.89	2.747
271.02	2.728
271.15	2.706
271.28	2.684
271.41	2.665
