Uv/Vis Spectrum: 3-(diphenylmethylene)-5-phenyl-3H-1,2,4-triazole
Formula: C21H15N3
CAS: 40795-33-3
Instrument: Zeiss PRQ 20
Origin: INSTITUTE OF ENERGY PROBLEMS OF CHEMICAL PHYSICS, RAS
Wavelength (nm)	Logarithm epsilon
273.382	3.89
274.885	3.837
276.404	3.792
277.941	3.759
279.494	3.734
281.066	3.702
282.654	3.649
284.261	3.564
285.887	3.438
287.531	3.276
289.194	3.09
290.876	2.91
291.101	2.831
292.578	2.782
294.3	2.773
295.984	2.795
297.747	2.85
299.53	2.906
301.336	2.951
303.163	2.98
305.012	2.992
306.884	2.988
308.779	2.967
310.698	2.926
312.834	2.845
314.804	2.707
316.799	2.525
318.819	2.338
320.864	2.18
322.937	2.06
325.036	1.941
327.02	1.874
329.173	1.824
331.354	1.794
333.565	1.776
335.805	1.768
338.075	1.765
340.377	1.768
342.71	1.775
345.075	1.787
347.473	1.803
349.905	1.823
352.371	1.847
354.872	1.874
357.408	1.905
359.982	1.937
362.592	1.971
365.241	2.007
367.928	2.043
370.393	2.088
373.424	2.129
375.835	2.158
378.809	2.21
381.572	2.249
384.506	2.301
387.486	2.352
390.512	2.396
393.586	2.431
396.709	2.453
399.882	2.459
403.173	2.435
406.544	2.397
409.877	2.361
413.264	2.335
416.709	2.32
420.211	2.314
423.772	2.319
427.394	2.332
431.54	2.356
435.297	2.384
439.12	2.421
443.011	2.454
446.971	2.483
451.003	2.51
455.108	2.538
459.288	2.572
463.546	2.611
467.737	2.648
472.154	2.678
476.655	2.696
481.243	2.703
485.92	2.707
490.689	2.714
494.425	2.727
497.969	2.758
501.07	2.776
505.573	2.756
508.158	2.733
510.738	2.696
515.743	2.639
521.119	2.568
526.607	2.484
532.212	2.385
537.938	2.269
543.789	2.132
548.401	2.025
551.978	1.923
555.556	1.783
