Uv/Vis Spectrum: 3,4,5-triphenyl-4H-1,2,4-triazole
Formula: C20H15N3
CAS: 4073-72-7
Melting point: 291
Instrument: unknown
Origin: INSTITUTE OF ENERGY PROBLEMS OF CHEMICAL PHYSICS, RAS
Wavelength (nm)	Logarithm epsilon
202.91	4.048
203.945	4.112
204.99	4.217
206.046	4.334
207.113	4.443
208.191	4.527
209.28	4.579
210.381	4.597
211.554	4.586
212.679	4.567
213.816	4.538
214.965	4.499
216.126	4.451
217.301	4.4
218.487	4.347
219.687	4.296
220.901	4.248
222.127	4.201
223.368	4.154
223.381	4.154
224.636	4.113
225.904	4.077
227.187	4.048
228.485	4.025
229.798	4.009
231.126	4
232.469	3.996
233.828	3.997
235.203	4
236.594	4.002
237.935	4.007
239.359	4.017
240.8	4.029
242.258	4.043
243.734	4.06
245.229	4.078
246.741	4.097
248.273	4.117
249.823	4.138
251.394	4.158
252.984	4.179
254.594	4.198
256.225	4.217
257.876	4.235
259.55	4.251
261.245	4.265
262.962	4.276
264.702	4.285
266.466	4.292
268.253	4.295
270.064	4.294
271.9	4.291
273.761	4.283
275.647	4.272
277.56	4.258
279.499	4.24
281.466	4.218
283.461	4.193
285.484	4.165
287.536	4.135
289.618	4.103
291.566	4.066
293.707	4.016
295.88	3.959
298.085	3.897
300.323	3.828
302.595	3.754
304.901	3.672
307.243	3.582
309.622	3.481
312.037	3.37
314.49	3.246
316.982	3.108
319.514	2.957
322.087	2.793
