Uv/Vis Spectrum: 2-Butene-1,4-dione, 1,4-diphenyl-
Formula: C16H12O2
CAS: 4070-75-1
Melting point: 111
Instrument: Beckman DU
Origin: INSTITUTE OF ENERGY PROBLEMS OF CHEMICAL PHYSICS, RAS
Wavelength (nm)	Logarithm epsilon
230.4	3.97
230.57	3.971
230.74	3.971
230.9	3.973
231.07	3.974
231.24	3.975
231.41	3.977
231.57	3.977
231.74	3.978
231.91	3.979
232.08	3.98
232.25	3.982
232.41	3.983
232.58	3.983
232.75	3.984
232.92	3.985
233.08	3.986
233.75	3.991
234.59	3.999
235.43	4.008
236.27	4.018
237.11	4.027
237.95	4.04
238.79	4.05
239.63	4.061
240.46	4.073
241.3	4.085
242.14	4.097
242.98	4.11
243.82	4.122
244.66	4.134
245.5	4.145
246.34	4.156
247.17	4.166
248.01	4.175
248.85	4.184
249.69	4.194
250.53	4.202
251.37	4.209
252.21	4.216
253.05	4.224
253.88	4.229
254.72	4.235
255.56	4.242
256.4	4.247
257.24	4.252
258.08	4.257
258.92	4.262
259.75	4.265
260.59	4.27
261.43	4.273
262.27	4.277
263.11	4.279
263.95	4.282
264.79	4.284
265.63	4.285
266.46	4.286
267.3	4.286
268.14	4.286
268.98	4.285
269.82	4.283
270.66	4.279
271.5	4.276
272.34	4.273
273.17	4.27
274.01	4.267
274.85	4.264
275.69	4.26
276.53	4.255
277.37	4.25
278.21	4.245
279.05	4.241
279.88	4.235
280.72	4.228
281.56	4.222
282.4	4.216
283.24	4.208
284.08	4.202
284.92	4.194
285.75	4.188
286.59	4.179
287.43	4.171
288.27	4.163
289.11	4.153
289.95	4.144
290.79	4.135
291.63	4.124
292.46	4.114
293.3	4.102
294.14	4.091
294.98	4.078
295.82	4.064
296.66	4.046
297.5	4.033
298.34	4.015
299.17	3.997
300.01	3.979
300.85	3.961
301.69	3.943
302.53	3.925
303.37	3.906
304.21	3.883
305.05	3.861
305.88	3.837
306.72	3.814
307.56	3.792
308.4	3.766
309.24	3.736
310.08	3.712
310.92	3.688
311.75	3.66
312.59	3.636
313.43	3.611
314.27	3.587
315.11	3.558
315.95	3.534
316.79	3.509
317.63	3.487
318.46	3.455
319.3	3.429
320.14	3.406
320.98	3.382
321.82	3.351
322.66	3.33
323.5	3.307
