Uv/Vis Spectrum: 2(1H)-Pyridinone,1-methoxy-
Formula: C6H7NO2
CAS: 40775-55-1
Boiling point: 109-110/ 0.1 mm
Instrument: Varian 2000
Origin: INSTITUTE OF ENERGY PROBLEMS OF CHEMICAL PHYSICS, RAS
Wavelength (nm)	Logarithm epsilon
220.223	3.613
220.923	3.626
221.623	3.639
222.323	3.654
223.023	3.669
223.723	3.685
224.423	3.703
225.123	3.721
225.823	3.739
226.523	3.758
227.223	3.775
227.923	3.792
228.623	3.807
229.323	3.819
230.023	3.827
230.723	3.83
231.423	3.827
232.123	3.815
232.823	3.794
233.523	3.762
233.995	3.732
234.695	3.682
235.395	3.631
236.095	3.578
236.795	3.524
237.495	3.468
238.195	3.411
238.895	3.352
239.595	3.291
240.295	3.228
240.995	3.164
241.695	3.097
242.395	3.028
243.095	2.957
243.795	2.884
244.495	2.808
245.195	2.73
245.732	2.687
246.589	2.621
247.289	2.575
247.989	2.524
248.689	2.478
249.389	2.444
250.089	2.426
250.789	2.424
251.489	2.438
252.189	2.463
252.889	2.496
253.589	2.532
253.714	2.532
254.414	2.569
255.114	2.602
255.814	2.634
256.514	2.663
257.214	2.691
257.914	2.718
258.614	2.744
259.314	2.77
260.014	2.795
260.714	2.82
261.414	2.845
262.114	2.87
262.814	2.894
263.514	2.918
264.214	2.942
264.914	2.966
265.614	2.989
266.314	3.013
267.014	3.035
267.714	3.057
268.414	3.079
269.114	3.1
269.814	3.121
270.514	3.14
271.214	3.16
271.914	3.178
272.614	3.196
273.314	3.214
274.014	3.231
274.714	3.247
275.414	3.263
276.114	3.279
276.814	3.294
277.514	3.31
278.214	3.325
278.914	3.34
279.614	3.356
280.314	3.371
281.014	3.387
281.714	3.403
282.414	3.42
283.114	3.437
283.814	3.454
284.514	3.471
285.214	3.488
285.914	3.505
286.695	3.522
287.278	3.536
287.978	3.548
288.678	3.561
289.378	3.575
290.078	3.59
290.778	3.605
291.478	3.62
292.178	3.634
292.878	3.649
293.578	3.663
294.278	3.676
294.978	3.689
295.678	3.7
296.378	3.711
297.078	3.72
297.778	3.728
298.478	3.735
299.178	3.741
299.878	3.746
300.578	3.749
301.278	3.751
301.978	3.751
302.678	3.751
303.378	3.749
304.078	3.746
304.778	3.741
305.478	3.736
306.178	3.729
306.878	3.721
307.578	3.712
308.278	3.703
308.978	3.692
309.678	3.681
310.378	3.668
311.078	3.655
311.778	3.642
312.478	3.627
313.178	3.612
313.878	3.597
314.578	3.581
315.278	3.565
315.978	3.548
316.678	3.531
317.378	3.514
318.078	3.496
318.778	3.479
319.478	3.461
320.178	3.442
320.878	3.424
321.578	3.405
322.278	3.386
322.978	3.367
323.678	3.348
324.378	3.328
325.078	3.308
325.778	3.287
326.478	3.266
327.178	3.244
327.878	3.221
328.578	3.198
329.278	3.173
329.978	3.148
330.678	3.12
331.378	3.092
332.078	3.061
332.778	3.029
333.478	2.994
334.178	2.956
334.878	2.916
335.578	2.872
336.278	2.825
336.978	2.773
