Uv/Vis Spectrum: N-Phenylpiperidine
Formula: C11H15N
CAS: 4096-20-2
Boiling point: 245-250
Instrument: unknown
Origin: INSTITUTE OF ENERGY PROBLEMS OF CHEMICAL PHYSICS, RAS
Wavelength (nm)	Logarithm epsilon
230.24	1.49
230.76	1.523
231.27	1.554
231.78	1.582
232.38	1.612
232.94	1.636
233.5	1.658
234.01	1.681
234.52	1.702
235.04	1.723
235.54	1.745
235.98	1.764
236.49	1.785
236.94	1.805
237.44	1.821
238.04	1.839
238.55	1.854
239.06	1.869
239.58	1.883
239.92	1.901
240.26	1.918
240.69	1.935
241.12	1.949
241.63	1.963
242.06	1.976
242.57	1.989
243.09	2.001
243.69	2.012
244.29	2.02
244.97	2.028
245.31	2.041
245.57	2.054
245.83	2.068
246	2.081
246.26	2.094
246.51	2.107
246.77	2.119
247.03	2.131
247.15	2.137
247.3	2.143
247.45	2.148
247.61	2.153
247.79	2.157
247.97	2.16
248.14	2.161
248.31	2.16
248.47	2.158
248.6	2.156
248.75	2.153
248.92	2.151
249.12	2.148
249.34	2.141
249.51	2.136
249.68	2.131
249.85	2.124
250.02	2.116
250.2	2.114
250.37	2.114
250.53	2.115
250.7	2.118
250.88	2.121
251.02	2.125
251.22	2.13
251.41	2.138
251.57	2.146
251.74	2.155
251.91	2.163
252.08	2.172
252.25	2.18
252.44	2.189
252.59	2.196
252.76	2.204
252.94	2.213
253.11	2.219
253.28	2.227
253.45	2.235
253.62	2.244
253.8	2.25
253.96	2.256
254.13	2.26
254.31	2.261
254.48	2.26
254.56	2.256
254.65	2.251
254.82	2.238
255	2.224
255.16	2.211
255.33	2.198
255.51	2.184
255.68	2.172
255.83	2.159
256.02	2.147
256.18	2.139
256.35	2.133
256.52	2.129
256.7	2.127
256.88	2.128
257.05	2.13
257.22	2.133
257.39	2.139
257.56	2.144
257.73	2.149
257.9	2.151
258.07	2.151
258.25	2.151
258.42	2.15
258.59	2.146
258.76	2.141
258.93	2.137
259.1	2.136
259.27	2.135
259.44	2.135
259.62	2.137
259.79	2.144
259.96	2.151
260.13	2.154
260.3	2.152
260.47	2.144
260.64	2.134
260.81	2.122
260.99	2.107
261.15	2.092
261.33	2.072
261.49	2.051
261.65	2.027
261.84	2.001
262	1.976
262.18	1.947
262.36	1.912
262.53	1.892
262.7	1.887
262.87	1.887
263.04	1.892
263.21	1.903
263.39	1.918
263.56	1.931
263.73	1.944
263.9	1.951
264.07	1.955
264.24	1.957
264.41	1.955
264.58	1.951
264.75	1.931
264.93	1.901
265.1	1.883
265.27	1.862
265.44	1.834
265.61	1.804
265.78	1.77
265.95	1.742
266.12	1.716
266.3	1.685
266.47	1.647
266.64	1.596
266.81	1.554
266.98	1.502
267.15	1.449
267.32	1.395
267.51	1.357
267.73	1.304
268	1.254
268.27	1.199
268.61	1.143
268.89	1.093
269.09	1.052
269.4	1.002
269.78	0.937
270.45	0.837
271.18	0.731
