Uv/Vis Spectrum: (S)-5'-S-(3-amino-3-carboxypropyl)-5'-thioguanosine
Formula: C14H20N6O6S
CAS: 41166-96-5
Melting point: 234-237 dec.
Instrument: Specord UV-Vis
Origin: INSTITUTE OF ENERGY PROBLEMS OF CHEMICAL PHYSICS, RAS
Wavelength (nm)	Logarithm epsilon
200.348	4.231
201.348	4.209
202.348	4.181
203.348	4.148
204.348	4.111
205.348	4.07
206.348	4.025
207.348	3.978
208.348	3.928
209.348	3.878
210.348	3.827
211.348	3.776
212.348	3.726
213.348	3.677
214.348	3.631
215.348	3.588
216.348	3.549
217.348	3.513
218.348	3.483
219.348	3.458
220.348	3.439
221.348	3.427
222.348	3.42
223.348	3.421
224.348	3.428
225.348	3.441
226.348	3.461
227.348	3.487
228.348	3.519
229.348	3.555
230.348	3.594
231.348	3.636
232.348	3.679
233.348	3.721
234.512	3.764
235.512	3.805
236.512	3.841
237.512	3.874
238.512	3.904
239.512	3.931
240.512	3.956
241.512	3.98
242.512	4.001
243.512	4.021
244.512	4.039
245.512	4.055
246.512	4.069
247.512	4.081
248.512	4.09
249.512	4.096
250.512	4.099
251.512	4.099
252.512	4.096
253.512	4.091
254.512	4.082
255.512	4.071
256.512	4.058
257.512	4.044
258.512	4.029
259.512	4.015
260.512	4.003
261.473	3.993
262.508	3.986
263.508	3.977
264.508	3.97
265.508	3.965
266.508	3.961
267.508	3.957
268.508	3.953
269.508	3.949
270.508	3.945
271.508	3.941
272.508	3.935
273.508	3.928
274.508	3.919
275.508	3.909
276.508	3.897
277.508	3.883
278.508	3.866
279.508	3.847
280.508	3.824
281.508	3.799
282.508	3.771
283.508	3.739
284.508	3.704
285.508	3.665
286.508	3.622
287.508	3.575
288.508	3.524
289.508	3.468
290.508	3.408
291.508	3.343
292.508	3.273
293.508	3.198
294.508	3.118
295.508	3.033
296.508	2.943
297.508	2.848
