Uv/Vis Spectrum: Benzene, 1,2-dimethyl-4-(1-methylethyl)-
Formula: C11H16
CAS: 4132-77-8
Boiling point: 61.5/ 6 mm
Instrument: unknown
Origin: INSTITUTE OF ENERGY PROBLEMS OF CHEMICAL PHYSICS, RAS
Wavelength (nm)	Logarithm epsilon
230.85	2.009
230.88	2.005
230.92	1.999
230.99	1.988
231.1	1.965
231.22	1.941
231.4	1.907
231.5	1.886
231.61	1.864
231.74	1.843
231.91	1.821
232.04	1.798
232.21	1.774
232.37	1.748
232.54	1.721
232.76	1.692
232.93	1.66
233.14	1.631
233.35	1.595
233.6	1.56
233.82	1.523
234.07	1.488
234.33	1.45
234.62	1.409
234.92	1.371
235.26	1.338
235.57	1.315
236.02	1.294
236.38	1.281
236.79	1.274
237.17	1.274
237.55	1.284
237.93	1.3
238.31	1.319
238.71	1.342
239.08	1.363
239.46	1.387
239.8	1.409
240.14	1.43
240.52	1.45
240.86	1.47
241.2	1.494
241.53	1.517
241.87	1.539
242.22	1.56
242.51	1.58
242.85	1.602
243.15	1.622
243.49	1.644
243.82	1.664
244.16	1.684
244.46	1.703
244.76	1.721
245.05	1.741
245.35	1.761
245.65	1.78
245.95	1.797
246.2	1.813
246.5	1.829
246.75	1.846
247.01	1.861
247.26	1.876
247.56	1.891
247.81	1.903
248.07	1.919
248.32	1.932
248.57	1.947
248.79	1.961
249.04	1.973
249.3	1.987
249.51	2
249.76	2.013
249.96	2.025
250.19	2.037
250.4	2.051
250.65	2.064
250.9	2.076
251.1	2.088
251.29	2.096
251.5	2.106
251.71	2.118
251.92	2.129
252.1	2.14
252.31	2.151
252.52	2.161
252.73	2.171
252.94	2.181
253.15	2.191
253.37	2.2
253.54	2.209
253.75	2.219
253.96	2.227
254.17	2.236
254.34	2.245
254.55	2.253
254.77	2.261
254.94	2.269
255.15	2.277
255.32	2.285
255.53	2.293
255.74	2.3
255.95	2.307
256.17	2.315
256.29	2.322
256.5	2.328
256.67	2.335
256.84	2.342
257.01	2.348
257.23	2.355
257.39	2.362
257.61	2.368
257.73	2.374
257.99	2.38
258.12	2.387
258.33	2.393
258.5	2.399
258.71	2.405
258.92	2.41
259.18	2.415
259.39	2.42
259.64	2.424
259.94	2.428
260.24	2.432
260.49	2.436
260.79	2.439
261.08	2.443
261.38	2.447
261.68	2.451
261.93	2.455
262.19	2.459
262.53	2.465
262.57	2.466
262.61	2.467
262.65	2.468
262.7	2.47
262.87	2.472
263.04	2.476
263.2	2.483
263.37	2.491
263.54	2.499
263.71	2.509
263.88	2.517
264.05	2.523
264.22	2.529
264.39	2.532
264.56	2.534
264.73	2.537
264.9	2.542
265.07	2.547
265.24	2.559
265.41	2.567
265.58	2.572
265.75	2.574
265.92	2.572
266.09	2.57
266.26	2.565
266.43	2.56
266.6	2.555
266.77	2.549
266.94	2.545
267.11	2.541
267.28	2.537
267.45	2.534
267.62	2.53
267.78	2.527
267.95	2.523
268.12	2.521
268.29	2.517
268.45	2.514
268.63	2.51
268.8	2.506
268.98	2.502
269.14	2.497
269.31	2.491
269.48	2.485
269.65	2.478
269.82	2.47
269.99	2.463
270.16	2.454
270.33	2.446
270.5	2.439
270.65	2.433
270.84	2.429
271.01	2.425
271.18	2.422
271.35	2.422
271.52	2.425
271.69	2.429
271.86	2.436
272.03	2.443
272.2	2.454
272.36	2.464
272.54	2.472
272.67	2.481
272.83	2.489
273	2.501
273.18	2.512
273.38	2.524
273.55	2.532
273.72	2.539
273.89	2.545
274.06	2.547
274.23	2.547
274.4	2.542
274.57	2.526
274.76	2.503
274.91	2.481
275.04	2.468
275.25	2.446
275.42	2.418
275.59	2.381
275.76	2.349
275.93	2.308
276.1	2.262
276.27	2.209
276.44	2.162
276.61	2.124
276.78	2.08
276.94	2.022
277.11	1.965
277.28	1.905
277.45	1.829
277.62	1.789
277.79	1.735
277.96	1.68
278.13	1.618
278.3	1.57
278.47	1.488
278.64	1.463
278.81	1.416
278.98	1.371
279.15	1.321
279.32	1.274
279.49	1.233
