Uv/Vis Spectrum: 2-(4-Hydroxyphenyl)-4H-1-benzopyran-4-one
Formula: C15H10O3
CAS: 4143-63-9
Melting point: 268-270
Instrument: Pye Unicam SP 8000
Origin: INSTITUTE OF ENERGY PROBLEMS OF CHEMICAL PHYSICS, RAS
Wavelength (nm)	Logarithm epsilon
224.877	4.433
226.023	4.416
227.018	4.401
228.018	4.381
229.018	4.358
230.018	4.333
231.018	4.309
232.018	4.288
233.018	4.269
234.018	4.255
235.018	4.244
236.018	4.238
237.018	4.235
238.018	4.235
239.018	4.237
240.018	4.241
241.018	4.246
242.018	4.251
243.018	4.255
244.214	4.256
245.214	4.256
246.214	4.255
247.214	4.256
248.214	4.257
249.214	4.258
250.214	4.261
251.214	4.264
252.214	4.267
253.214	4.27
254.214	4.272
255.214	4.274
256.214	4.274
257.214	4.274
258.214	4.272
259.214	4.269
260.214	4.266
261.214	4.261
262.214	4.255
263.416	4.251
264.416	4.245
265.416	4.231
266.416	4.209
267.416	4.179
268.416	4.142
269.416	4.102
269.429	4.104
270.429	4.061
271.429	4.023
272.429	3.994
273.429	3.977
274.429	3.972
275.425	3.975
276.432	3.98
277.272	3.99
278.772	4.013
280.272	4.036
281.772	4.06
283.272	4.083
284.772	4.106
286.272	4.129
287.772	4.152
289.272	4.176
290.772	4.199
292.272	4.222
293.772	4.245
295.272	4.269
296.772	4.292
298.272	4.315
299.772	4.338
301.272	4.361
302.304	4.378
303.304	4.389
304.304	4.399
305.304	4.406
306.304	4.411
307.304	4.413
308.304	4.411
309.304	4.406
310.187	4.398
311.687	4.384
313.187	4.368
314.687	4.35
316.187	4.33
317.687	4.307
319.187	4.281
320.687	4.253
321.332	4.24
322.332	4.214
323.332	4.184
324.332	4.151
325.332	4.117
326.332	4.08
327.332	4.041
328.332	4
329.332	3.955
