Uv/Vis Spectrum: Silanamine, 1,1,1-trimethyl-N-phenyl-N-(trimethylsilyl)-
Formula: C12H23NSi2
CAS: 4147-89-1
Boiling point: 63/ 0.6 mm
Instrument: Spektromom 201
Origin: INSTITUTE OF ENERGY PROBLEMS OF CHEMICAL PHYSICS, RAS
Wavelength (nm)	Logarithm epsilon
211.19	3.766
211.9	3.763
212.97	3.742
213.86	3.735
214.75	3.732
215.64	3.722
216.52	3.715
217.41	3.701
218.3	3.684
219.19	3.663
220.08	3.646
220.97	3.615
221.85	3.581
222.74	3.547
223.63	3.513
224.52	3.495
225.41	3.492
226.3	3.495
227.19	3.499
228.07	3.513
228.96	3.516
229.85	3.53
230.74	3.536
231.63	3.543
232.52	3.56
233.4	3.571
234.29	3.578
235.18	3.588
236.07	3.591
236.96	3.595
237.85	3.595
238.73	3.591
239.62	3.578
240.51	3.571
241.4	3.554
242.29	3.523
243.18	3.502
244.07	3.471
244.95	3.441
245.84	3.406
246.73	3.358
247.62	3.314
248.51	3.262
249.4	3.204
250.28	3.115
251.17	3.04
252.06	2.971
252.95	2.916
253.84	2.868
254.73	2.817
255.61	2.772
256.5	2.734
257.39	2.697
258.28	2.659
259.17	2.642
260.06	2.628
260.94	2.625
261.83	2.621
262.72	2.625
263.61	2.625
264.5	2.628
266.28	2.639
267.16	2.645
268.05	2.656
268.94	2.656
269.83	2.645
270.72	2.632
271.61	2.621
272.49	2.618
273.38	2.625
274.27	2.632
275.16	2.618
276.05	2.601
276.94	2.58
277.82	2.553
278.71	2.522
279.6	2.495
280.49	2.467
281.38	2.443
282.27	2.416
283.15	2.392
284.04	2.371
284.93	2.344
285.82	2.323
286.71	2.306
287.6	2.289
288.49	2.272
289.37	2.251
290.26	2.237
291.15	2.217
292.04	2.196
292.93	2.172
293.82	2.148
294.7	2.128
295.59	2.111
296.48	2.09
297.37	2.066
298.26	2.046
299.15	2.025
300.03	2.004
300.92	1.963
301.81	1.926
302.7	1.881
303.59	1.833
304.48	1.761
305.37	1.689
306.25	1.59
307.14	1.518
308.03	1.439
310.7	1.326
311.58	1.271
312.47	1.223
313.36	1.189
314.25	1.151
315.14	1.106
316.03	1.072
316.91	1.041
317.8	1.014
318.69	0.983
319.58	0.956
320.47	0.932
321.36	0.904
322.24	0.884
323.13	0.867
324.02	0.846
324.91	0.829
325.8	0.812
326.69	0.798
327.58	0.781
328.46	0.764
