Uv/Vis Spectrum: Methanamine, N-methyl-N-nitro-
Formula: C2H6N2O2
CAS: 4164-28-7
Melting point: 58
Boiling point: 187
Instrument: SFD-2
Origin: INSTITUTE OF ENERGY PROBLEMS OF CHEMICAL PHYSICS, RAS
Wavelength (nm)	Logarithm epsilon
227.419	3.668
229.419	3.685
231.419	3.695
233.419	3.701
235.419	3.703
237.419	3.702
239.419	3.696
241.419	3.688
243.419	3.676
245.419	3.661
247.419	3.642
249.419	3.62
251.419	3.595
253.419	3.565
255.419	3.532
257.419	3.495
259.419	3.454
261.419	3.409
263.419	3.36
265.419	3.307
267.419	3.251
269.419	3.192
271.419	3.13
273.419	3.065
275.419	2.999
277.419	2.93
279.419	2.86
281.419	2.789
283.419	2.717
285.419	2.645
287.419	2.571
289.419	2.497
291.39	2.422
293.39	2.345
295.39	2.264
297.39	2.176
299.39	2.08
301.39	1.978
303.39	1.879
