Uv/Vis Spectrum: Di-n-butylnitramine
Formula: C8H18N2O2
CAS: 4164-31-2
Melting point: 22
Boiling point: 129-130/ 11 mm
Instrument: SFD-2
Origin: INSTITUTE OF ENERGY PROBLEMS OF CHEMICAL PHYSICS, RAS
Wavelength (nm)	Logarithm epsilon
225.405	3.793
227.405	3.809
229.405	3.824
231.405	3.838
233.405	3.85
235.405	3.86
237.405	3.867
239.405	3.871
241.405	3.871
243.405	3.868
245.405	3.861
247.405	3.85
249.405	3.836
251.405	3.817
253.405	3.795
255.405	3.769
257.405	3.74
259.405	3.707
261.405	3.671
263.405	3.632
265.405	3.59
267.405	3.545
269.405	3.498
271.405	3.448
273.405	3.395
275.405	3.341
277.405	3.284
279.405	3.225
281.405	3.165
283.405	3.102
285.405	3.037
287.405	2.97
289.405	2.901
291.405	2.83
293.405	2.755
295.405	2.678
297.405	2.597
299.405	2.512
301.405	2.422
303.405	2.328
