Uv/Vis Spectrum: Crotonaldehyde
Formula: C4H6O
CAS: 4170-30-3
Instrument: n.i.g.
Origin: INSTITUTE OF ENERGY PROBLEMS OF CHEMICAL PHYSICS, RAS
Wavelength (nm)	Logarithm epsilon
380.512	0.420055
379.1	0.46443
378.291	0.553203
378.211	0.588317
378.153	0.613726
377.983	0.629185
377.885	0.636909
377.667	0.638988
377.427	0.638938
377.327	0.635876
377.321	0.548868
377.303	0.619667
377.276	0.611458
376.596	0.523798
375.388	0.60414
373.51	0.59395
373.149	0.593353
371.529	0.6914
371.166	0.692027
370.985	0.692239
369.882	0.620927
368.235	0.685867
368.034	0.684648
367.934	0.683929
367.295	0.639925
365.806	0.666181
365.13	0.696994
364.843	0.705838
363.81	0.712498
363.488	0.729489
362.476	0.851142
362.117	0.896747
361.864	0.910907
361.833	0.910197
361.746	0.908774
361.295	0.921525
360.212	0.965037
359.46	0.966222
358.897	1.02721
358.676	1.02904
358.663	1.03561
358.648	1.04288
358.189	0.981705
358.091	0.974479
358.009	0.987537
356.358	1.00324
355.519	0.995095
354.367	1.00496
353.613	0.99495
352.861	1.03188
352.778	1.02553
352.128	1.01413
351.739	1.01944
350.969	1.01532
350.692	1.01502
350.482	1.02476
350.364	1.0295
349.676	1.02936
349.332	1.02929
348.932	1.04664
348.069	1.04663
347.23	1.08236
346.959	1.08206
346.398	1.08125
346.322	1.0939
346.146	1.11922
345.917	1.12049
345.291	1.12091
344.991	1.14293
344.669	1.15505
344.471	1.15282
344.033	1.15092
343.926	1.16363
343.325	1.18598
343.082	1.18074
342.895	1.16828
342.784	1.16826
342.543	1.16821
342.483	1.17336
342.338	1.18365
341.905	1.18895
341.797	1.17978
341.682	1.17976
341.437	1.17384
341.429	1.17782
341.426	1.1797
341.249	1.181
341.244	1.18342
340.983	1.19133
340.845	1.19906
340.614	1.19431
340.493	1.18912
340.189	1.18577
339.883	1.19087
339.769	1.19031
339.519	1.18891
339.376	1.18466
339.09	1.17615
338.496	1.17858
338.007	1.18084
337.902	1.17957
337.673	1.17677
337.436	1.17743
336.944	1.17873
335.902	1.17984
335.712	1.18033
334.324	1.18001
331.135	1.20088
330.831	1.21044
329.939	1.20439
329.609	1.21979
329.405	1.21692
329.292	1.21502
328.251	1.2207
327.937	1.2147
327.615	1.21485
327.45	1.21741
326.772	1.2153
326.765	1.21912
326.459	1.21077
326.455	1.21318
326.235	1.21359
325.776	1.2142
325.702	1.21089
325.555	1.20429
325.395	1.20425
325.059	1.20417
325.035	1.2065
324.968	1.21096
324.83	1.21068
324.555	1.20992
324.482	1.20678
324.335	1.20024
324.013	1.20057
323.351	1.20095
323.334	1.1993
323.281	1.196
322.231	1.19317
321.907	1.18981
321.006	1.19287
320.785	1.18953
319.909	1.19125
319.601	1.18525
318.769	1.19185
318.561	1.1918
318.543	1.19032
318.492	1.18709
318.179	1.1875
317.693	1.18877
317.622	1.18617
317.479	1.18097
315.779	1.17367
310.792	1.12173
308.059	1.10027
305.269	1.07596
302.808	1.04779
301.041	1.01473
298.463	0.95886
295.947	0.913554
292.334	0.854907
291.417	0.834796
289.035	0.794509
285.255	0.706274
283.683	0.664275
282.067	0.622515
281.203	0.602613
280.941	0.593164
280.851	0.588653
279.067	0.545579
275.93	0.458502
272.808	0.385588
271.166	0.349763
269.519	0.314057
268.704	0.296204
267.163	0.269163
264.696	0.231164
262.667	0.208092
262.17	0.203278
261.481	0.198492
261.165	0.19518
259.462	0.188647
257.128	0.196149
255.456	0.225878
253.915	0.292367
253.431	0.317102
252.847	0.34811
252.035	0.392222
250.875	0.456275
249.239	0.557868
248.618	0.605424
247.594	0.686824
246.352	0.787042
245.824	0.832905
245.305	0.879944
244.871	0.926342
244.598	0.970305
243.968	1.04246
243.473	1.09228
243.034	1.14151
242.762	1.17124
242.759	1.17521
242.661	1.18481
242.38	1.22246
241.418	1.34036
240.949	1.40407
240.669	1.44312
240.003	1.53645
239.714	1.58121
239.424	1.62597
239.134	1.67073
238.925	1.69715
