Uv/Vis Spectrum: Anethole
Formula: C10H12O
CAS: 4180-23-8
Melting point: 22.5
Boiling point: 235.3
Instrument: Beckman Model DU
Origin: INSTITUTE OF ENERGY PROBLEMS OF CHEMICAL PHYSICS, RAS
Wavelength (nm)	Logarithm epsilon
208.3	4.549
209.48	4.532
210.67	4.512
211.69	4.491
212.7	4.471
213.55	4.447
214.4	4.423
215.24	4.396
215.92	4.369
216.77	4.341
217.44	4.314
217.95	4.287
218.63	4.259
219.14	4.232
219.65	4.205
220.32	4.177
220.83	4.147
221.17	4.116
221.68	4.089
222.19	4.061
222.69	4.031
223.03	4
223.54	3.973
224.05	3.945
224.56	3.918
225.57	3.894
226.93	3.877
228.45	3.877
229.81	3.894
230.99	3.911
232.01	3.935
232.86	3.962
233.87	3.986
234.72	4.014
235.57	4.041
236.41	4.065
237.26	4.092
238.28	4.116
238.95	4.143
239.97	4.167
240.65	4.195
241.66	4.218
242.51	4.246
243.36	4.273
244.2	4.297
245.05	4.321
245.9	4.345
246.91	4.369
247.93	4.392
248.95	4.413
250.13	4.433
251.15	4.454
252.16	4.474
253.35	4.495
254.37	4.519
255.21	4.543
256.4	4.56
257.75	4.573
259.28	4.577
260.63	4.567
261.99	4.556
263.17	4.539
264.53	4.522
265.88	4.505
267.24	4.491
268.42	4.474
269.61	4.454
270.62	4.43
271.47	4.403
272.15	4.375
272.66	4.345
273.17	4.314
273.5	4.283
273.84	4.253
274.35	4.225
274.86	4.195
275.37	4.164
275.71	4.133
276.21	4.102
276.55	4.072
277.06	4.044
277.57	4.014
277.91	3.983
278.42	3.956
278.92	3.925
279.43	3.894
279.94	3.867
280.96	3.843
282.31	3.826
283.67	3.809
285.02	3.799
286.54	3.792
288.07	3.785
289.59	3.778
291.12	3.771
292.47	3.761
293.83	3.744
295.18	3.727
296.54	3.71
297.72	3.689
298.57	3.666
299.59	3.642
300.26	3.614
301.11	3.59
301.79	3.563
302.63	3.536
303.48	3.509
304.16	3.481
305.17	3.457
306.02	3.43
306.87	3.406
307.38	3.379
308.22	3.352
308.73	3.324
309.24	3.297
309.75	3.27
310.26	3.242
310.59	3.212
310.93	3.181
311.27	3.15
311.44	3.119
311.78	3.089
311.95	3.058
312.29	3.027
312.46	2.997
312.63	2.966
312.8	2.935
313.13	2.904
313.3	2.874
313.47	2.843
313.81	2.812
313.98	2.782
314.15	2.751
314.32	2.72
314.66	2.689
314.83	2.659
315	2.628
315.17	2.597
315.34	2.567
315.68	2.536
315.84	2.505
316.01	2.474
316.18	2.444
316.35	2.413
316.69	2.382
316.86	2.351
317.03	2.321
317.2	2.29
317.54	2.259
317.71	2.229
318.05	2.198
318.22	2.167
318.39	2.136
318.72	2.106
318.89	2.075
319.23	2.044
319.4	2.014
319.74	1.983
