Uv/Vis Spectrum: 2-[2-hydroxy-1-(6-mercapto-9H-purin-9-yl)ethoxy]-1,3-propanediol
Formula: C10H14N4O4S
CAS: 41935-19-7
Instrument: Unicam SP 800
Origin: INSTITUTE OF ENERGY PROBLEMS OF CHEMICAL PHYSICS, RAS
Wavelength (nm)	Logarithm epsilon
210.867	3.355
212.367	3.394
213.867	3.448
215.367	3.506
216.867	3.562
218.367	3.612
219.867	3.654
221.367	3.685
222.867	3.705
224.367	3.712
225.867	3.705
227.367	3.683
228.867	3.644
230.367	3.586
231.867	3.508
233.367	3.411
234.867	3.297
236.367	3.173
236.539	3.159
238.039	3.03
239.539	2.928
240.823	2.865
242.323	2.787
243.823	2.726
245.323	2.68
246.823	2.645
248.323	2.62
249.823	2.603
251.323	2.592
252.823	2.585
254.323	2.581
255.823	2.579
257.323	2.58
258.823	2.582
260.323	2.585
261.823	2.591
263.323	2.598
264.823	2.608
266.323	2.623
267.823	2.643
269.323	2.669
270.823	2.704
272.323	2.75
274.039	2.819
275.539	2.866
277.039	2.924
278.682	3.004
280.182	3.07
281.682	3.134
283.182	3.198
284.682	3.26
286.182	3.321
287.682	3.381
289.182	3.44
290.682	3.498
292.182	3.554
293.682	3.609
295.182	3.662
296.682	3.715
298.182	3.767
299.682	3.818
301.182	3.869
302.682	3.919
304.182	3.969
305.682	4.018
307.182	4.065
308.682	4.11
310.182	4.152
311.682	4.191
313.182	4.225
314.682	4.254
316.182	4.275
317.682	4.288
319.182	4.292
320.682	4.285
322.182	4.268
323.682	4.238
325.182	4.197
326.682	4.145
328.182	4.082
329.682	4.01
331.182	3.929
332.682	3.844
334.182	3.755
335.682	3.665
337.182	3.578
338.682	3.494
340.182	3.415
341.682	3.339
343.182	3.265
344.682	3.185
346.182	3.089
