Uv/Vis Spectrum: 5-methoxy-2-phenyl-4H-1-benzopyran-4-one
Formula: C16H12O3
CAS: 42079-78-7
Melting point: 131
Instrument: Pye Unicam SP 8000
Origin: INSTITUTE OF ENERGY PROBLEMS OF CHEMICAL PHYSICS, RAS
Wavelength (nm)	Logarithm epsilon
219.645	4.435
220.645	4.433
221.645	4.421
222.645	4.402
223.645	4.379
224.645	4.354
225.645	4.328
226.645	4.302
227.645	4.277
228.645	4.252
229.645	4.228
230.645	4.205
231.645	4.183
232.645	4.161
233.645	4.139
234.645	4.116
235.645	4.094
236.645	4.071
237.645	4.049
238.56	4.031
239.56	4.012
240.56	3.997
241.56	3.987
242.56	3.981
243.56	3.98
244.56	3.983
245.56	3.99
246.56	4
247.56	4.013
248.56	4.027
249.56	4.043
250.56	4.06
251.56	4.078
252.56	4.098
253.56	4.118
254.353	4.144
255.353	4.158
256.353	4.184
257.353	4.215
258.353	4.248
259.353	4.28
260.353	4.308
261.353	4.332
262.353	4.35
263.353	4.364
264.353	4.373
265.353	4.379
266.353	4.381
267.208	4.383
268.208	4.381
269.208	4.375
270.208	4.368
271.208	4.359
272.208	4.35
273.208	4.34
274.208	4.33
275.208	4.318
276.208	4.305
277.208	4.289
278.208	4.268
278.226	4.268
279.226	4.243
280.226	4.215
281.226	4.187
282.226	4.162
283.226	4.138
284.226	4.118
285.226	4.102
286.226	4.089
287.226	4.079
288.226	4.071
289.226	4.064
290.226	4.059
291.226	4.053
292.182	4.045
293.182	4.043
294.182	4.035
295.182	4.022
296.182	4.004
297.182	3.983
298.182	3.959
299.182	3.934
300.182	3.91
301.182	3.888
302.182	3.87
303.182	3.857
304.182	3.849
305.182	3.848
306.139	3.85
307.139	3.852
308.139	3.858
309.139	3.868
310.139	3.881
311.139	3.897
312.139	3.914
313.139	3.933
314.139	3.952
315.139	3.971
316.139	3.99
317.139	4.007
318.139	4.022
319.139	4.034
320.139	4.043
321.139	4.047
322.139	4.047
323.139	4.042
324.11	4.03
325.11	4.014
326.11	3.998
327.11	3.983
