Uv/Vis Spectrum: 4-(3,3-dimethyl-3H-indol-2-yl)-N,N-dimethylbenzenamine
Formula: C18H20N2
CAS: 4203-57-0
Instrument: Beckman Acta III
Origin: INSTITUTE OF ENERGY PROBLEMS OF CHEMICAL PHYSICS, RAS
Wavelength (nm)	Logarithm epsilon
217.821	3.979
219.014	3.962
220.22	3.952
221.439	3.949
222.671	3.951
223.918	3.956
225.179	3.961
226.453	3.967
227.743	3.975
229.047	3.987
230.366	4.003
231.7	4.022
233.05	4.037
234.408	4.049
235.79	4.062
237.188	4.074
238.603	4.08
240.035	4.077
241.484	4.063
242.95	4.035
244.435	3.993
245.938	3.939
246.061	3.934
247.584	3.879
249.126	3.817
250.688	3.752
252.269	3.687
253.87	3.625
255.491	3.568
257.134	3.514
258.797	3.462
260.483	3.41
262.19	3.356
263.92	3.3
265.673	3.252
267.321	3.232
269.119	3.21
270.942	3.197
272.79	3.194
274.663	3.201
276.562	3.22
278.487	3.251
280.44	3.291
282.42	3.339
284.428	3.39
286.465	3.444
288.532	3.498
290.628	3.551
292.755	3.604
294.913	3.655
297.104	3.706
299.327	3.757
301.584	3.81
303.875	3.865
305.873	3.901
308.23	3.957
310.624	4.017
313.055	4.076
315.524	4.128
318.033	4.172
320.582	4.209
323.172	4.245
325.804	4.285
328.427	4.333
331.146	4.374
333.91	4.405
336.721	4.429
339.58	4.447
342.488	4.461
345.445	4.471
348.354	4.479
351.415	4.478
354.529	4.463
355.318	4.458
358.502	4.421
361.744	4.371
365.046	4.319
365.297	4.316
368.664	4.254
372.093	4.181
375.587	4.091
379.147	3.977
382.775	3.822
386.243	3.546
390.009	3.229
393.849	2.994
393.973	2.995
394.43	2.969
394.888	2.941
