Uv/Vis Spectrum: 2-Amino-5-nitropyridine
Formula: C5H5N3O2
CAS: 4214-76-0
Melting point: 190-191
Instrument: Unicam SP 700
Origin: INSTITUTE OF ENERGY PROBLEMS OF CHEMICAL PHYSICS, RAS
Wavelength (nm)	Logarithm epsilon
206.93	4.088
207.95	4.064
208.96	4.044
209.98	4.023
210.99	3.999
212.18	3.979
213.19	3.959
214.21	3.938
215.39	3.918
216.4	3.898
217.59	3.877
218.6	3.854
219.79	3.837
220.97	3.816
222.15	3.796
223.51	3.779
224.69	3.759
226.04	3.742
227.4	3.725
228.75	3.708
230.1	3.691
231.45	3.677
232.98	3.671
234.5	3.66
236.02	3.65
237.54	3.643
239.06	3.633
240.59	3.626
242.11	3.62
243.63	3.613
245.15	3.606
246.67	3.596
248.2	3.589
249.72	3.579
251.07	3.565
252.42	3.548
253.78	3.538
255.13	3.521
256.48	3.504
257.67	3.484
258.51	3.46
259.36	3.437
260.03	3.409
260.71	3.382
261.39	3.355
261.89	3.328
262.57	3.301
263.25	3.274
263.75	3.247
264.26	3.219
264.77	3.192
265.28	3.162
265.61	3.131
266.12	3.104
266.97	3.08
267.47	3.053
268.15	3.026
269	2.999
269.5	2.972
270.35	2.948
271.2	2.921
272.21	2.897
273.06	2.874
274.07	2.85
275.08	2.826
276.27	2.806
277.62	2.789
278.97	2.772
280.33	2.758
281.85	2.758
283.2	2.772
284.39	2.789
285.57	2.806
286.75	2.823
287.94	2.843
288.95	2.863
289.97	2.887
290.98	2.907
292	2.931
293.01	2.955
294.19	2.975
295.21	2.999
296.22	3.023
297.41	3.043
298.42	3.067
299.44	3.087
300.45	3.111
301.47	3.135
302.65	3.155
303.66	3.179
304.68	3.199
305.86	3.219
306.88	3.24
307.89	3.264
309.08	3.284
310.26	3.304
311.27	3.328
312.46	3.348
313.64	3.369
314.66	3.392
315.84	3.413
316.85	3.433
317.87	3.453
318.88	3.474
319.9	3.494
321.08	3.511
322.1	3.535
323.11	3.555
324.3	3.576
325.48	3.596
326.66	3.616
327.68	3.637
328.86	3.657
330.05	3.674
331.23	3.694
332.41	3.715
333.43	3.735
334.61	3.755
335.79	3.772
336.98	3.789
337.99	3.81
339.18	3.83
340.36	3.85
341.54	3.871
342.73	3.888
343.91	3.905
345.26	3.921
346.62	3.938
347.8	3.955
349.15	3.969
350.34	3.986
351.69	4.003
353.04	4.016
354.4	4.033
355.75	4.047
357.1	4.061
358.46	4.071
359.64	4.088
360.99	4.101
362.34	4.115
363.87	4.122
365.22	4.135
366.57	4.145
368.09	4.152
369.45	4.162
370.97	4.169
372.32	4.179
373.84	4.183
375.37	4.186
376.89	4.193
378.41	4.196
379.93	4.203
381.45	4.203
382.98	4.206
384.5	4.206
386.02	4.203
387.54	4.203
389.06	4.203
390.59	4.196
392.11	4.189
393.63	4.183
395.15	4.172
396.67	4.166
398.03	4.152
399.55	4.142
400.9	4.125
402.25	4.115
403.61	4.105
404.96	4.088
406.31	4.074
407.67	4.061
409.02	4.044
410.37	4.027
411.72	4.01
412.91	3.989
414.09	3.972
415.28	3.955
416.46	3.935
417.64	3.915
418.83	3.898
420.01	3.877
421.03	3.857
422.04	3.837
423.39	3.82
424.41	3.799
425.42	3.776
426.61	3.755
427.62	3.735
428.64	3.711
429.82	3.691
430.83	3.667
431.85	3.643
432.86	3.623
433.88	3.599
434.89	3.579
435.91	3.555
436.92	3.531
437.94	3.511
438.78	3.487
439.8	3.464
440.81	3.443
441.66	3.42
442.67	3.396
443.69	3.375
444.7	3.352
445.55	3.328
446.56	3.304
447.41	3.28
448.42	3.257
449.27	3.23
450.28	3.206
451.13	3.179
451.97	3.155
452.82	3.128
453.66	3.104
454.51	3.08
455.36	3.057
456.2	3.03
457.05	3.002
457.89	2.975
458.74	2.948
459.41	2.921
460.26	2.897
460.94	2.87
461.78	2.843
462.63	2.816
463.3	2.789
463.98	2.762
464.83	2.738
465.33	2.711
466.01	2.684
466.85	2.66
467.36	2.633
468.04	2.606
468.71	2.578
469.22	2.551
469.9	2.524
470.57	2.497
471.08	2.47
471.76	2.443
472.44	2.416
472.94	2.389
473.62	2.361
474.13	2.334
474.63	2.307
475.14	2.28
475.99	2.253
476.49	2.222
477	2.195
477.51	2.168
478.02	2.141
478.52	2.114
479.03	2.087
479.54	2.056
480.05	2.029
480.55	2.002
481.06	1.971
481.57	1.941
481.91	1.91
