Uv/Vis Spectrum: 2-Pyridinamine, 3-nitro-
Formula: C5H5N3O2
CAS: 4214-75-9
Melting point: 163-164
Instrument: Beckman DK
Origin: INSTITUTE OF ENERGY PROBLEMS OF CHEMICAL PHYSICS, RAS
Wavelength (nm)	Logarithm epsilon
184.74	4.015
185.06	4.014
185.38	4.013
185.69	4.012
186.01	4.011
186.32	4.01
186.64	4.009
186.96	4.008
187.27	4.007
188.22	3.999
189.49	3.992
190.75	3.988
192.02	3.985
193.28	3.982
194.55	3.981
195.81	3.979
197.08	3.979
198.34	3.979
199.64	3.979
200.87	3.982
202.16	3.985
203.49	3.99
204.68	3.995
205.93	4.001
207.19	4.006
208.46	4.012
209.72	4.019
210.99	4.021
212.16	4.021
213.48	4.019
214.78	4.015
216.05	4.005
217.31	3.993
218.58	3.979
219.84	3.967
221.11	3.944
222.37	3.914
223.64	3.879
224.9	3.844
226.04	3.818
227.43	3.788
228.7	3.766
229.83	3.749
231.1	3.732
232.49	3.714
233.76	3.7
235.02	3.682
236.29	3.666
237.55	3.649
238.78	3.634
240.08	3.622
241.34	3.608
242.61	3.596
243.87	3.583
245.1	3.573
246.4	3.562
247.43	3.552
248.93	3.537
250.16	3.525
251.46	3.514
252.73	3.502
253.72	3.494
255.08	3.484
256.43	3.475
259.05	3.457
260.32	3.449
261.79	3.441
264.11	3.429
265.34	3.424
267.09	3.417
269.17	3.411
270.38	3.41
271.7	3.41
274.23	3.411
275.5	3.413
276.84	3.417
278.26	3.423
279.61	3.431
280.55	3.438
281.82	3.448
283.29	3.462
284.35	3.473
285.61	3.487
286.88	3.502
288.14	3.518
289.41	3.532
290.67	3.545
291.94	3.56
293.2	3.572
294.47	3.596
295.73	3.615
297	3.633
298.26	3.653
299.53	3.677
300.79	3.692
302.06	3.71
303.32	3.727
304.59	3.74
305.85	3.753
307.12	3.769
308.38	3.784
309.65	3.803
310.91	3.816
312.18	3.831
313.44	3.848
314.71	3.859
315.97	3.873
317.24	3.887
318.5	3.902
319.77	3.915
321.03	3.926
322.29	3.939
323.56	3.95
324.82	3.964
326.09	3.974
327.35	3.985
328.62	3.994
329.88	4.005
331.15	4.012
332.41	4.018
333.68	4.025
334.94	4.031
336.21	4.035
337.47	4.039
338.74	4.044
340	4.047
341.27	4.051
342.53	4.053
343.8	4.054
345.06	4.055
346.33	4.054
348.86	4.052
350.12	4.051
351.39	4.049
352.65	4.047
353.92	4.043
355.18	4.04
356.45	4.037
357.71	4.033
358.98	4.029
360.24	4.025
361.47	4.019
362.77	4.014
364.03	4.008
365.3	4.001
366.56	3.993
367.8	3.986
369.09	3.978
370.35	3.969
371.62	3.961
372.89	3.951
374.15	3.943
375.42	3.928
376.68	3.915
377.95	3.896
379.21	3.878
380.48	3.854
381.74	3.837
383.01	3.817
384.27	3.797
385.54	3.773
386.8	3.739
388.07	3.71
389.33	3.678
390.6	3.652
391.86	3.626
393.13	3.601
394.39	3.577
395.66	3.553
396.92	3.53
398.19	3.508
399.45	3.484
400.71	3.461
401.98	3.443
403.24	3.417
404.51	3.391
405.53	3.368
407.04	3.341
408.24	3.318
409.57	3.292
410.83	3.265
412.1	3.239
413.36	3.211
414.63	3.181
417.16	3.126
