Uv/Vis Spectrum: 7-phenyl-2,4(1H,3H)-pteridinedione-5-oxide
Formula: C12H8N4O3
CAS: 42347-15-9
Melting point: 345-350(dec.)
Instrument: unknown
Origin: INSTITUTE OF ENERGY PROBLEMS OF CHEMICAL PHYSICS, RAS
Wavelength (nm)	Logarithm epsilon
207.305	4.291
208.305	4.289
209.305	4.282
210.305	4.271
211.305	4.259
212.305	4.246
213.305	4.233
214.305	4.221
215.305	4.211
216.305	4.203
217.305	4.198
218.305	4.195
219.305	4.194
220.305	4.195
221.305	4.198
222.305	4.203
223.305	4.209
224.305	4.216
225.305	4.222
226.305	4.229
227.305	4.235
228.305	4.24
229.305	4.243
230.305	4.246
231.305	4.246
232.305	4.246
233.305	4.244
234.305	4.242
235.305	4.24
235.408	4.241
236.408	4.235
237.408	4.232
238.408	4.233
239.408	4.24
240.408	4.251
241.408	4.266
242.408	4.285
243.408	4.305
244.408	4.324
245.408	4.342
246.408	4.354
247.904	4.37
248.904	4.379
249.012	4.381
250.012	4.384
251.012	4.388
252.012	4.392
253.012	4.394
254.012	4.392
255.012	4.388
256.012	4.379
257.012	4.368
258.012	4.352
259.012	4.334
260.012	4.313
261.012	4.291
262.012	4.267
263.012	4.243
264.012	4.22
265.012	4.197
266.012	4.176
267.012	4.156
268.012	4.137
269.012	4.12
269.866	4.104
270.866	4.086
271.866	4.071
272.866	4.058
273.866	4.048
274.866	4.041
275.866	4.035
276.866	4.031
277.866	4.029
278.866	4.027
279.866	4.028
280.866	4.029
281.866	4.03
282.866	4.033
283.866	4.036
284.866	4.039
285.866	4.043
286.866	4.046
287.866	4.05
288.866	4.053
289.866	4.056
290.866	4.059
291.866	4.061
292.866	4.063
293.866	4.064
294.866	4.065
295.866	4.065
296.866	4.064
297.866	4.062
298.866	4.06
299.866	4.057
300.866	4.053
301.866	4.048
302.866	4.043
303.866	4.036
304.866	4.029
305.866	4.021
306.866	4.011
307.866	4.001
308.866	3.99
309.866	3.978
310.866	3.965
311.866	3.95
312.866	3.935
313.866	3.918
314.866	3.9
316.08	3.881
316.958	3.863
317.234	3.856
318.234	3.835
319.234	3.814
320.234	3.792
321.234	3.77
322.234	3.75
323.234	3.731
324.234	3.714
325.234	3.699
326.234	3.686
327.234	3.675
328.234	3.667
329.234	3.66
330.234	3.657
331.234	3.655
332.234	3.656
333.234	3.658
334.234	3.663
335.234	3.669
336.234	3.676
337.234	3.685
338.234	3.695
339.234	3.707
340.234	3.719
341.234	3.732
342.234	3.745
343.234	3.759
344.234	3.774
345.234	3.789
346.234	3.804
347.025	3.818
348.025	3.835
349.025	3.853
350.025	3.872
351.025	3.892
352.025	3.913
353.025	3.935
354.025	3.957
355.025	3.981
356.025	4.004
357.025	4.027
358.025	4.049
359.025	4.071
360.025	4.091
361.025	4.109
362.025	4.126
363.025	4.14
364.025	4.152
365.025	4.163
366.025	4.171
367.025	4.177
368.025	4.182
369.025	4.184
370.025	4.186
371.025	4.186
372.025	4.184
373.025	4.181
374.025	4.176
375.025	4.169
375.922	4.158
376.922	4.146
377.922	4.115
378.922	4.074
379.922	4.025
380.922	3.973
381.922	3.92
382.922	3.864
383.922	3.804
384.922	3.737
385.922	3.657
387.243	3.593
388.243	3.466
389.243	3.377
390.243	3.314
391.243	3.269
392.243	3.235
393.243	3.206
394.243	3.179
395.243	3.153
396.243	3.128
397.074	3.109
