Uv/Vis Spectrum: Disulfide, bis(1-methylethyl)
Formula: C6H14S2
CAS: 4253-89-8
Boiling point: 177
Instrument: unknown
Origin: INSTITUTE OF ENERGY PROBLEMS OF CHEMICAL PHYSICS, RAS
Wavelength (nm)	Logarithm epsilon
212.7	2.883
212.87	2.875
213.04	2.866
213.21	2.858
213.37	2.85
213.54	2.841
213.71	2.833
213.88	2.824
214.04	2.816
214.21	2.808
214.38	2.799
214.54	2.787
214.88	2.768
215.4	2.742
215.88	2.72
216.4	2.694
216.88	2.67
217.35	2.647
217.72	2.628
218.16	2.609
218.73	2.587
219.54	2.56
220.11	2.538
221.02	2.516
221.78	2.502
222.68	2.488
223.57	2.482
224.41	2.478
225.24	2.478
226.08	2.478
226.87	2.481
227.75	2.49
228.59	2.503
229.42	2.515
230.44	2.526
231.25	2.535
231.93	2.544
232.77	2.553
233.6	2.561
234.44	2.57
235.29	2.572
236.11	2.574
236.94	2.578
237.76	2.584
238.62	2.595
239.45	2.607
240.14	2.614
241.05	2.616
241.76	2.617
242.71	2.618
243.63	2.616
244.38	2.613
245.3	2.607
246.09	2.6
246.97	2.59
247.81	2.582
248.66	2.571
249.48	2.561
250.32	2.553
251.15	2.544
251.99	2.536
252.8	2.525
253.66	2.515
254.5	2.507
255.32	2.495
256.13	2.483
257	2.473
257.84	2.461
258.65	2.449
259.51	2.436
260.17	2.422
261.03	2.408
262.02	2.39
262.88	2.376
263.69	2.361
264.5	2.346
265.36	2.327
266.2	2.306
266.98	2.291
267.83	2.273
268.71	2.256
269.45	2.241
270.35	2.221
271.21	2.198
272.05	2.181
272.89	2.16
273.73	2.139
274.56	2.118
275.4	2.101
276.23	2.081
277.06	2.064
277.9	2.047
278.63	2.025
279.57	1.997
280.41	1.968
281.24	1.934
282.08	1.888
282.48	1.858
282.91	1.827
283.34	1.798
283.75	1.771
284.2	1.742
284.67	1.707
285.05	1.681
285.42	1.654
285.96	1.617
286.48	1.581
287.09	1.529
287.72	1.473
288.43	1.405
289.05	1.345
289.6	1.278
290.44	1.178
291	1.081
292.11	0.89
292.95	0.768
293.78	0.664
294.62	0.593
295.45	0.53
296.29	0.476
297.13	0.43
299.63	0.334
301.3	0.284
302.47	0.263
303.64	0.242
304.65	0.213
305.99	0.196
307.32	0.175
308.66	0.162
310	0.146
311.33	0.129
312.84	0.116
314.34	0.104
315.85	0.096
317.35	0.091
318.86	0.083
320.36	0.079
321.87	0.07
323.37	0.066
324.88	0.054
326.38	0.05
327.88	0.045
329.39	0.037
330.89	0.037
332.4	0.033
