Uv/Vis Spectrum: N-(diphenylmethylene)-4-methoxybenzenamine
Formula: C20H17NO
CAS: 42834-19-5
Melting point: 135-136
Instrument: Beckman DK-1
Origin: INSTITUTE OF ENERGY PROBLEMS OF CHEMICAL PHYSICS, RAS
Wavelength (nm)	Logarithm epsilon
216.954	4.141
217.954	4.122
218.954	4.11
219.954	4.102
220.954	4.097
221.954	4.095
222.954	4.095
223.954	4.096
224.954	4.098
225.954	4.101
226.954	4.104
227.954	4.108
228.954	4.112
229.954	4.117
230.954	4.122
231.954	4.127
232.954	4.133
233.954	4.14
234.954	4.146
235.954	4.153
236.954	4.16
237.954	4.167
238.954	4.173
239.954	4.178
240.954	4.182
241.954	4.185
242.954	4.186
243.954	4.185
244.954	4.183
245.954	4.178
246.954	4.171
247.685	4.162
248.685	4.155
249.685	4.148
250.685	4.141
251.685	4.133
252.685	4.124
253.685	4.115
254.685	4.104
255.685	4.093
256.685	4.081
257.685	4.068
258.685	4.055
259.685	4.041
260.685	4.027
261.685	4.013
262.685	3.999
263.685	3.985
264.685	3.971
265.685	3.957
266.685	3.944
267.685	3.931
268.685	3.918
269.685	3.905
270.685	3.892
271.685	3.879
272.685	3.866
273.685	3.853
274.408	3.845
275.408	3.828
276.408	3.813
277.408	3.797
278.408	3.781
279.408	3.764
280.408	3.746
281.408	3.727
282.408	3.708
283.408	3.689
284.408	3.67
285.408	3.651
286.408	3.632
287.408	3.615
288.408	3.598
289.408	3.582
290.408	3.565
291.408	3.548
292.433	3.529
293.433	3.51
294.433	3.489
295.433	3.467
296.433	3.444
297.433	3.421
298.433	3.399
299.433	3.378
300.433	3.36
301.433	3.344
302.433	3.333
303.433	3.325
304.433	3.321
305.433	3.32
306.403	3.321
307.403	3.318
308.403	3.319
309.403	3.324
310.403	3.332
311.403	3.342
312.403	3.353
313.403	3.364
314.403	3.376
315.403	3.387
316.403	3.398
317.403	3.408
318.403	3.417
319.403	3.426
320.403	3.434
321.403	3.442
322.403	3.45
323.403	3.457
324.403	3.465
325.403	3.473
326.403	3.481
327.403	3.489
328.403	3.497
329.403	3.505
330.403	3.514
331.328	3.52
332.328	3.526
333.328	3.532
334.328	3.538
335.328	3.544
336.328	3.55
337.328	3.554
338.328	3.558
339.328	3.56
340.328	3.562
341.328	3.562
342.328	3.562
343.328	3.56
344.328	3.557
345.328	3.554
346.328	3.55
347.328	3.545
348.328	3.54
349.328	3.535
350.328	3.53
351.328	3.524
352.328	3.519
353.328	3.513
354.328	3.507
355.328	3.501
356.328	3.494
356.981	3.489
357.981	3.481
358.981	3.474
359.981	3.466
360.981	3.458
361.981	3.45
362.981	3.441
363.981	3.433
364.981	3.423
365.981	3.414
366.981	3.404
367.981	3.393
368.981	3.382
369.981	3.37
370.981	3.358
371.981	3.345
372.981	3.331
373.981	3.317
374.981	3.303
375.981	3.287
376.981	3.271
377.981	3.254
378.981	3.237
379.981	3.218
380.981	3.199
381.981	3.179
382.981	3.158
383.981	3.135
384.981	3.111
385.981	3.085
387.178	3.055
