Uv/Vis Spectrum: N-(2-amino-5-nitrophenyl)acetamide
Formula: C8H9N3O3
CAS: 43154-39-8
Melting point: 205-206
Instrument: Ultrametr A8-S
Origin: INSTITUTE OF ENERGY PROBLEMS OF CHEMICAL PHYSICS, RAS
Wavelength (nm)	Logarithm epsilon
270.194	3.562
270.477	3.565
271.477	3.549
272.477	3.534
273.477	3.52
274.477	3.506
275.477	3.491
276.477	3.477
277.477	3.462
278.477	3.446
279.477	3.431
280.477	3.415
281.477	3.4
282.477	3.385
283.477	3.371
284.477	3.358
285.477	3.347
286.477	3.338
287.477	3.331
288.477	3.326
289.477	3.324
290.477	3.324
291.477	3.327
292.477	3.332
293.477	3.339
294.477	3.348
295.477	3.36
296.477	3.372
297.477	3.386
298.477	3.4
299.477	3.415
300.477	3.429
301.477	3.443
301.577	3.448
302.577	3.458
303.577	3.468
304.577	3.478
305.577	3.489
306.577	3.499
307.577	3.51
308.577	3.521
309.577	3.532
310.577	3.544
311.577	3.555
312.577	3.567
313.577	3.578
314.577	3.59
315.577	3.602
316.577	3.614
317.577	3.626
318.577	3.638
319.577	3.65
320.577	3.662
321.577	3.675
322.577	3.687
323.577	3.699
324.577	3.711
325.577	3.724
326.577	3.736
327.577	3.749
328.577	3.761
329.577	3.773
330.577	3.785
331.577	3.798
332.577	3.81
333.577	3.822
334.577	3.834
335.577	3.846
336.577	3.858
337.577	3.869
338.577	3.881
339.577	3.893
340.577	3.904
341.577	3.915
342.577	3.926
343.577	3.937
344.577	3.948
345.577	3.959
346.577	3.969
347.577	3.98
348.577	3.99
349.577	4
350.577	4.009
351.577	4.019
352.577	4.028
354.126	4.044
355.146	4.054
355.861	4.062
356.861	4.069
357.861	4.075
358.861	4.081
359.861	4.087
360.861	4.092
361.861	4.097
362.861	4.101
363.861	4.105
364.861	4.109
365.861	4.113
366.861	4.117
367.861	4.12
368.861	4.123
369.861	4.125
370.861	4.127
371.861	4.129
372.861	4.13
373.861	4.131
374.861	4.131
375.861	4.13
376.861	4.129
377.861	4.128
378.861	4.125
379.861	4.122
380.861	4.119
381.861	4.115
382.861	4.11
383.861	4.105
384.861	4.099
385.861	4.093
386.861	4.086
387.861	4.078
388.861	4.07
389.861	4.061
390.861	4.052
391.861	4.043
392.861	4.033
393.861	4.022
394.861	4.011
395.861	3.999
396.861	3.985
397.861	3.971
398.835	3.959
399.835	3.942
400.835	3.924
401.835	3.907
402.835	3.888
403.835	3.87
404.835	3.85
405.835	3.831
406.835	3.811
407.835	3.791
408.835	3.77
409.835	3.749
410.835	3.727
411.835	3.705
412.835	3.683
413.835	3.66
414.835	3.637
415.835	3.613
416.835	3.589
417.835	3.565
418.835	3.54
419.835	3.515
420.835	3.489
421.453	3.477
422.453	3.449
423.453	3.419
424.453	3.388
425.453	3.355
426.453	3.32
427.453	3.284
428.453	3.246
429.453	3.206
430.453	3.165
431.453	3.123
432.453	3.079
433.453	3.034
434.453	2.989
435.453	2.942
436.453	2.895
437.453	2.848
438.453	2.801
439.453	2.755
440.453	2.709
441.453	2.663
442.453	2.619
443.453	2.577
444.453	2.536
445.453	2.498
446.453	2.462
447.453	2.43
448.453	2.401
449.453	2.375
450.292	2.354
