Uv/Vis Spectrum: 4-phenylphenanthrene
Formula: C20H14
CAS: 4325-78-4
Melting point: 74-76
Instrument: Cary 15
Origin: INSTITUTE OF ENERGY PROBLEMS OF CHEMICAL PHYSICS, RAS
Wavelength (nm)	Logarithm epsilon
226.292	4.497
227.792	4.495
229.292	4.498
230.792	4.496
232.292	4.485
233.792	4.461
235.292	4.427
236.706	4.39
238.206	4.353
239.706	4.344
241.206	4.356
242.706	4.379
244.206	4.409
245.706	4.44
245.771	4.442
247.271	4.471
248.771	4.503
250.271	4.536
251.771	4.564
253.271	4.585
254.771	4.595
256.271	4.594
257.535	4.584
259.035	4.583
260.535	4.576
262.035	4.562
263.535	4.543
265.035	4.521
266.535	4.495
268.035	4.468
269.535	4.44
271.035	4.413
272.535	4.388
274.035	4.364
275.535	4.343
277.035	4.324
278.535	4.306
280.035	4.289
281.535	4.271
282.945	4.249
284.445	4.229
285.945	4.21
287.445	4.189
288.945	4.166
290.445	4.145
291.945	4.131
293.445	4.129
293.458	4.13
294.958	4.137
296.458	4.139
297.958	4.1
299.458	4.018
301.05	3.939
302.55	3.836
304.05	3.738
305.55	3.644
307.05	3.551
308.55	3.459
310.05	3.367
311.55	3.276
313.05	3.184
314.55	3.093
316.05	3.002
317.55	2.912
319.05	2.82
320.55	2.727
322.05	2.63
323.55	2.526
324.997	2.415
326.497	2.361
327.997	2.339
329.497	2.368
330.997	2.464
332.211	2.52
332.935	2.582
333.658	2.61
334.382	2.597
335.106	2.577
335.83	2.552
336.505	2.539
337.277	2.53
338.001	2.517
338.725	2.515
339.449	2.515
340.233	2.515
340.896	2.52
341.62	2.502
342.025	2.464
342.455	2.426
343.068	2.357
343.459	2.313
343.746	2.279
344.247	2.259
344.821	2.269
345.239	2.29
345.896	2.324
346.398	2.361
346.756	2.402
347.187	2.464
347.688	2.518
348.047	2.559
348.62	2.586
349.34	2.57
349.823	2.53
350.305	2.5
