Uv/Vis Spectrum: 1,2'-Binaphthyl
Formula: C20H14
CAS: 4325-74-0
Melting point: 76
Instrument: Beckman DU
Origin: INSTITUTE OF ENERGY PROBLEMS OF CHEMICAL PHYSICS, RAS
Wavelength (nm)	Logarithm epsilon
201.374	4.50675
202.724	4.50652
204.083	4.50621
204.466	4.5045
204.557	4.50588
204.652	4.5071
204.755	4.50824
206.897	4.53738
207.729	4.55104
208.569	4.56453
209.413	4.57795
210.883	4.63136
211.026	4.62831
211.08	4.62539
211.091	4.6201
211.357	4.62968
211.878	4.64554
212.407	4.66141
212.94	4.67728
213.664	4.70599
214.402	4.72653
215.249	4.74191
216.281	4.75791
217.573	4.78095
218.617	4.79674
219.562	4.80406
220.959	4.80096
222.29	4.79735
224.767	4.80471
225.845	4.80702
226.448	4.80627
227.974	4.78408
228.513	4.76989
229.056	4.75554
229.607	4.74111
230.844	4.71664
231.55	4.69748
232.26	4.67824
232.978	4.65884
233.74	4.63825
234.316	4.6227
234.896	4.60707
235.484	4.59129
237.02	4.55595
237.467	4.54356
237.917	4.531
238.376	4.51837
238.376	4.51837
238.49	4.5184
238.613	4.51844
238.74	4.51848
238.74	4.51848
238.743	4.51362
238.747	4.50861
238.751	4.50351
239.916	4.47719
240.376	4.46197
241.058	4.44212
242.039	4.41172
243.005	4.38352
243.774	4.36062
244.55	4.33758
245.331	4.31445
246.482	4.28228
246.842	4.26555
247.418	4.24547
248.036	4.22248
249.189	4.18849
249.542	4.16905
250.282	4.1403
250.951	4.11925
252.29	4.07984
252.563	4.06234
253.115	4.03948
253.57	4.02178
254.449	3.98954
255.17	3.96629
255.695	3.95225
256.472	3.93535
258.461	3.92645
259.329	3.93318
260.202	3.93975
261.083	3.94624
262.573	3.97299
263.437	3.97948
264.166	3.98757
265.387	4.00415
266.967	4.0313
267.811	4.04543
268.656	4.05957
269.5	4.0737
270.61	4.09668
271.8	4.11502
272.83	4.1243
274.367	4.13179
275.686	4.14351
277.097	4.15787
277.873	4.167
278.679	4.17875
279.789	4.20173
281.079	4.2085
282.368	4.21097
283.751	4.20657
285.084	4.1993
285.869	4.19513
286.509	4.19002
287.554	4.17959
290.021	4.16317
291.002	4.15247
291.619	4.14725
292.401	4.14306
294.396	4.1265
294.873	4.12241
295.664	4.11419
296.96	4.1028
298.388	4.09008
299.086	4.08079
299.784	4.0715
300.482	4.06222
302.594	4.03436
303.445	4.02282
304.304	4.01112
305.167	3.99934
307.173	3.9678
307.676	3.95798
308.188	3.948
308.705	3.93794
310.049	3.9157
310.697	3.89744
311.244	3.88435
312.16	3.86519
313.309	3.83705
314.29	3.81656
314.866	3.80253
315.532	3.78293
316.771	3.75481
317.442	3.73419
318.117	3.71357
318.8	3.69295
319.676	3.66473
320.318	3.64375
320.992	3.61945
321.71	3.59557
322.404	3.56729
322.987	3.54115
323.571	3.51493
324.154	3.48855
324.94	3.45847
325.062	3.44972
325.191	3.4409
325.324	3.43192
326.908	3.35678
327.234	3.33422
327.56	3.31157
327.886	3.28877
328.678	3.25138
328.91	3.23143
329.167	3.21578
329.669	3.19104
330.255	3.1609
330.642	3.13717
331.037	3.11327
331.436	3.0893
332.035	3.06683
332.549	3.04313
333.072	3.01928
333.598	2.99534
333.987	2.96149
334.575	2.93087
335.166	2.90009
335.766	2.86924
