Uv/Vis Spectrum: 1,1'-Biphenyl, 2,2',3,3',4,4',5,5',6,6'-decafluoro-
Formula: C12F10
CAS: 434-90-2
Melting point: 69.0-69.5
Instrument: Spectrophotometer SF-16
Origin: INSTITUTE OF ENERGY PROBLEMS OF CHEMICAL PHYSICS, RAS
Wavelength (nm)	Logarithm epsilon
230	4.08001
231	4.07
232	4.07
233	4.06
234	4.05
235	4.04
236	4.03
237	4.01
238	3.99
239	3.98
240	3.95
241	3.91
242	3.87
243	3.82
244	3.77
245	3.71
246	3.63
247	3.61
248	3.56
249	3.51
250	3.47
251	3.38
252	3.34
253	3.29
254	3.27
255	3.26
256	3.26
257	3.25
258	3.26
259	3.27
260	3.28001
261	3.29
262	3.31
263	3.32
264	3.33
265	3.34
266	3.35
267	3.35
268	3.35
269	3.34
270	3.33001
271	3.32
272	3.3
273	3.27
274	3.21
275	3.16
276	3.12
277	3.07
278	3.02
279	2.97
