Uv/Vis Spectrum: 2H-1,4-Ethanoquinoline, 3,4-dihydro-
Formula: C11H13N
CAS: 4363-25-1
Instrument: n.i.g.
Origin: INSTITUTE OF ENERGY PROBLEMS OF CHEMICAL PHYSICS, RAS
Wavelength (nm)	Logarithm epsilon
222.2	2.804
222.27	2.802
222.41	2.793
222.61	2.785
222.82	2.773
223.03	2.761
223.24	2.751
223.45	2.743
223.65	2.732
223.86	2.721
224.07	2.711
224.28	2.702
224.49	2.69
224.69	2.683
224.9	2.673
225.11	2.663
225.32	2.654
225.52	2.644
225.73	2.636
225.94	2.628
226.15	2.618
226.36	2.609
226.56	2.601
226.77	2.591
226.98	2.581
227.19	2.573
227.4	2.564
227.6	2.556
227.81	2.55
228.02	2.54
228.23	2.532
228.44	2.526
228.64	2.517
228.85	2.508
229.06	2.5
229.27	2.494
229.48	2.487
229.68	2.479
229.89	2.472
230.1	2.466
230.31	2.458
230.51	2.452
230.72	2.444
230.93	2.436
231.14	2.432
231.35	2.424
231.55	2.415
231.76	2.411
231.97	2.402
232.18	2.397
232.39	2.39
232.59	2.383
232.8	2.381
233.01	2.372
233.22	2.369
233.43	2.364
233.63	2.359
233.84	2.357
234.05	2.349
234.26	2.344
234.47	2.342
234.67	2.337
234.88	2.331
235.09	2.329
235.3	2.323
235.5	2.321
235.71	2.318
235.92	2.318
236.13	2.313
236.34	2.31
236.54	2.31
236.75	2.307
236.96	2.307
237.17	2.304
237.38	2.301
237.58	2.301
237.79	2.299
238	2.296
238.21	2.296
238.42	2.296
238.62	2.296
238.83	2.29
239.04	2.29
239.25	2.293
239.46	2.293
239.66	2.293
239.87	2.296
240.08	2.299
240.29	2.299
240.5	2.299
240.7	2.301
240.91	2.301
241.12	2.301
241.33	2.304
241.53	2.307
241.74	2.31
241.95	2.313
242.16	2.315
242.37	2.315
242.57	2.318
242.78	2.323
242.99	2.326
243.2	2.331
243.41	2.334
243.61	2.342
243.82	2.344
244.03	2.352
244.24	2.354
244.45	2.359
244.65	2.367
244.86	2.369
245.07	2.379
245.28	2.381
245.49	2.388
245.69	2.39
245.9	2.393
246.11	2.397
246.32	2.402
246.52	2.404
246.73	2.408
246.94	2.413
247.15	2.413
247.36	2.417
247.56	2.417
247.77	2.417
247.98	2.424
248.19	2.426
248.4	2.43
248.6	2.436
248.81	2.442
249.02	2.446
249.23	2.454
249.44	2.462
249.64	2.466
249.85	2.47
250.06	2.485
250.27	2.494
250.48	2.505
250.68	2.512
250.89	2.517
251.1	2.522
251.31	2.527
251.51	2.532
251.72	2.537
251.93	2.539
252.14	2.542
252.35	2.544
252.55	2.545
252.76	2.545
252.97	2.545
253.18	2.545
253.39	2.545
253.59	2.544
253.8	2.542
254.01	2.54
254.22	2.54
254.43	2.54
254.63	2.54
254.84	2.542
255.05	2.544
255.26	2.547
255.47	2.55
255.67	2.556
255.88	2.569
256.09	2.578
256.3	2.587
256.5	2.595
256.71	2.604
256.92	2.614
257.13	2.623
257.34	2.631
257.54	2.639
257.75	2.645
257.96	2.652
258.17	2.657
258.38	2.657
258.58	2.651
258.79	2.639
259	2.631
259.21	2.618
259.42	2.604
259.62	2.59
259.83	2.575
260.04	2.564
260.25	2.552
260.46	2.542
260.66	2.527
260.87	2.517
261.08	2.503
261.29	2.492
261.5	2.483
261.7	2.476
261.91	2.468
262.12	2.462
262.33	2.454
262.53	2.454
262.74	2.456
262.95	2.464
263.16	2.498
263.37	2.52
263.57	2.544
263.78	2.591
264.13	2.642
264.13	2.622
264.27	2.649
264.41	2.656
264.48	2.657
264.68	2.653
264.82	2.643
265.45	2.553
265.65	2.52
265.86	2.485
266.07	2.448
266.28	2.406
266.49	2.376
266.69	2.334
266.9	2.29
267.11	2.251
267.32	2.228
267.52	2.2
267.73	2.171
267.94	2.151
268.15	2.131
268.36	2.11
268.56	2.092
268.77	2.073
268.98	2.063
269.19	2.043
269.4	2.038
269.6	2.022
269.81	2.017
270.02	2.006
270.23	2
270.44	2
