Uv/Vis Spectrum: Tris(dimethylamino)borane
Formula: C6H18BN3
CAS: 4375-83-1
Instrument: McPnerson 225
Origin: INSTITUTE OF ENERGY PROBLEMS OF CHEMICAL PHYSICS, RAS
Wavelength (nm)	Logarithm epsilon
168.31	3.931
168.63	3.936
168.91	3.94
169.22	3.945
169.47	3.949
169.85	3.952
170.26	3.954
170.65	3.954
171.05	3.954
171.39	3.955
171.81	3.959
172.37	3.967
172.76	3.971
173.05	3.972
173.42	3.971
173.9	3.966
174.25	3.961
174.69	3.958
175.11	3.958
175.68	3.962
175.94	3.967
176.36	3.976
176.79	3.985
177.21	3.99
177.39	3.991
177.64	3.99
178.07	3.981
178.5	3.967
178.93	3.954
179.25	3.949
179.63	3.945
180	3.944
180.24	3.945
180.7	3.948
181.13	3.954
181.35	3.957
181.57	3.958
181.83	3.957
182.14	3.952
182.46	3.946
182.92	3.94
183.38	3.936
183.83	3.931
184.3	3.932
184.76	3.936
185.22	3.94
185.69	3.945
186.16	3.947
186.63	3.945
187.1	3.936
187.57	3.922
188.05	3.909
188.53	3.895
189.02	3.886
189.5	3.873
189.99	3.859
190.48	3.846
190.97	3.837
191.8	3.821
192.62	3.802
193.48	3.778
193.99	3.742
194.5	3.692
195.01	3.647
195.34	3.628
195.97	3.602
196.4	3.587
197.1	3.566
197.62	3.552
198.16	3.539
198.69	3.521
199.23	3.498
199.77	3.485
200.31	3.476
200.85	3.48
201.4	3.494
201.95	3.512
202.51	3.525
203.07	3.53
203.63	3.525
204.19	3.512
204.76	3.494
205.33	3.476
205.9	3.458
206.48	3.439
207.06	3.43
207.64	3.435
208.35	3.451
209.03	3.473
209.41	3.494
210	3.539
210.6	3.593
211.2	3.633
211.81	3.674
212.42	3.706
212.56	3.711
213.03	3.715
213.48	3.71
214.16	3.699
214.9	3.697
215.52	3.706
216.16	3.724
216.79	3.742
217.43	3.755
218.07	3.769
218.72	3.782
219.37	3.796
220.02	3.814
220.47	3.827
220.95	3.839
221.44	3.851
221.95	3.864
222.41	3.877
222.89	3.89
223.31	3.901
223.47	3.906
223.77	3.915
223.99	3.926
224.15	3.935
224.35	3.942
224.54	3.95
224.77	3.958
224.99	3.967
225.25	3.971
225.53	3.968
225.74	3.964
225.9	3.957
226.09	3.951
226.29	3.946
226.56	3.94
226.68	3.939
226.79	3.94
227.02	3.945
227.25	3.954
227.58	3.966
227.81	3.975
227.96	3.981
228.19	3.99
228.43	3.999
228.68	4.006
228.86	4.011
229.13	4.012
229.39	4.012
229.68	4.009
229.91	4.006
230.13	3.999
230.33	3.99
230.53	3.979
230.81	3.963
231.05	3.949
231.29	3.931
231.53	3.913
231.78	3.882
232.02	3.864
232.26	3.841
232.51	3.819
232.75	3.791
233	3.773
233.02	3.756
233.08	3.728
233.15	3.706
233.21	3.684
233.24	3.665
233.49	3.647
233.74	3.606
233.98	3.575
234.23	3.521
234.48	3.494
234.73	3.471
234.98	3.462
235.23	3.453
235.48	3.435
235.73	3.421
235.98	3.394
236.23	3.363
236.48	3.34
236.74	3.322
236.99	3.309
237.24	3.291
237.5	3.268
237.75	3.245
238.01	3.232
238.27	3.223
238.52	3.214
238.78	3.205
239.04	3.2
239.3	3.187
239.56	3.182
239.81	3.173
240.07	3.164
240.34	3.155
240.6	3.146
240.86	3.137
241.12	3.128
241.38	3.119
241.65	3.11
241.91	3.097
242.18	3.087
242.44	3.083
242.71	3.078
242.97	3.083
243.24	3.092
243.51	3.092
243.78	3.097
244.05	3.101
244.32	3.101
244.59	3.097
244.86	3.097
245.13	3.092
245.4	3.087
245.67	3.074
245.94	3.06
246.22	3.047
246.49	3.033
246.77	3.02
247.04	3.015
247.32	3.011
247.6	3.002
247.87	3.002
248.15	3.002
248.43	3.011
248.71	3.02
248.99	3.029
249.27	3.038
249.55	3.047
249.83	3.06
250.11	3.065
250.4	3.065
250.68	3.069
250.97	3.074
251.25	3.078
251.54	3.092
251.82	3.119
252.11	3.133
252.4	3.142
252.68	3.151
252.97	3.155
253.26	3.16
253.55	3.16
253.84	3.16
254.14	3.155
254.43	3.151
254.72	3.137
255.01	3.11
255.31	3.074
255.6	3.02
255.9	2.961
256.19	2.893
256.31	2.853
256.49	2.799
256.62	2.75
256.77	2.684
256.93	2.628
257.09	2.551
257.23	2.487
257.38	2.408
257.56	2.307
257.67	2.226
257.76	2.157
257.87	2.071
