Uv/Vis Spectrum: 1-Pyrrolidinyloxy, 3-(aminocarbonyl)-2,2,5,5-tetramethyl-
Formula: C9H17N2O2
CAS: 4399-80-8
Melting point: 174-174.5
Instrument: SF-16
Origin: INSTITUTE OF ENERGY PROBLEMS OF CHEMICAL PHYSICS, RAS
Wavelength (nm)	Logarithm epsilon
216.28	3.407
221.17	3.417
226.05	3.422
230.94	3.433
235.82	3.417
239.62	3.391
243.42	3.359
246.67	3.323
249.39	3.286
252.1	3.244
254.27	3.202
256.99	3.16
258.61	3.118
260.79	3.076
262.41	3.034
264.04	2.992
265.67	2.95
267.3	2.903
268.38	2.855
270.01	2.808
271.1	2.761
272.73	2.714
273.81	2.666
275.44	2.619
277.07	2.572
278.7	2.525
279.78	2.477
281.41	2.435
281.95	2.388
283.58	2.346
285.21	2.299
286.84	2.257
288.47	2.215
290.09	2.173
