Uv/Vis Spectrum: isobutyranilide
Formula: C10H13NO
CAS: 4406-41-1
Instrument: Beckman DK-2A
Origin: INSTITUTE OF ENERGY PROBLEMS OF CHEMICAL PHYSICS, RAS
Wavelength (nm)	Logarithm epsilon
178.239	4.1079
178.46	4.10645
178.683	4.10497
178.91	4.10344
180.008	4.09893
180.758	4.09958
181.062	4.10013
181.182	4.10105
182.093	4.10853
182.306	4.11053
182.545	4.11367
183.014	4.12059
183.999	4.13339
184.179	4.13615
184.361	4.13889
184.547	4.14161
185.306	4.15283
185.487	4.15585
185.669	4.1588
185.857	4.16171
186.192	4.16986
186.452	4.17563
186.713	4.18132
186.979	4.18694
187.369	4.19612
187.611	4.20171
187.858	4.20719
188.106	4.21259
188.666	4.22359
188.944	4.23037
189.146	4.23491
189.346	4.24035
189.903	4.24977
190.135	4.25572
190.366	4.26157
190.598	4.26731
190.989	4.27504
191.158	4.27918
191.331	4.28325
191.507	4.28726
191.903	4.29613
192.073	4.30032
192.247	4.30447
192.424	4.30857
192.869	4.31666
192.986	4.3208
193.105	4.32489
193.229	4.32891
193.684	4.33663
193.841	4.34058
193.999	4.34448
194.155	4.34832
194.497	4.35507
194.687	4.3595
194.88	4.36388
195.077	4.36822
195.416	4.37399
195.566	4.37762
195.721	4.38122
195.877	4.38479
196.284	4.39189
196.451	4.39525
196.62	4.39859
196.794	4.4019
197.354	4.40899
197.509	4.41194
197.665	4.41486
197.82	4.41773
198.168	4.42493
198.539	4.4309
198.727	4.43329
198.892	4.43419
198.892	4.43419
199.07	4.43874
199.177	4.44088
199.307	4.44244
200.121	4.44699
200.586	4.44769
200.874	4.44787
201.233	4.44768
201.855	4.44597
201.99	4.44458
202.126	4.44319
202.262	4.44179
202.653	4.43649
202.714	4.43443
202.776	4.43237
202.837	4.43029
203.03	4.4257
203.118	4.42264
203.208	4.41955
203.302	4.41641
203.492	4.4111
203.552	4.40852
203.611	4.40592
203.671	4.4033
203.845	4.3966
203.904	4.39375
203.963	4.39086
204.022	4.38793
204.211	4.38226
204.3	4.37907
204.391	4.37584
204.487	4.3726
204.674	4.3661
204.714	4.36336
204.753	4.36059
204.793	4.35777
204.92	4.34861
204.981	4.34589
205.041	4.34314
205.102	4.34033
205.286	4.33257
205.377	4.32641
205.447	4.32322
205.556	4.32032
205.749	4.3144
205.799	4.3107
205.862	4.30697
205.886	4.2955
205.905	4.3009
205.946	4.29213
206.005	4.28872
206.065	4.28529
206.148	4.2765
206.201	4.27302
206.258	4.26949
206.317	4.26591
206.402	4.25752
206.442	4.254
206.482	4.25045
206.522	4.24687
206.649	4.23502
206.707	4.23053
206.765	4.226
206.822	4.22142
206.898	4.2122
206.956	4.20747
207.014	4.20269
207.072	4.19785
207.139	4.18515
207.219	4.18398
207.266	4.18084
207.321	4.17293
207.391	4.16049
207.451	4.15628
207.512	4.15201
207.573	4.14765
207.655	4.13553
207.707	4.13031
207.763	4.125
207.822	4.11958
207.902	4.10537
207.953	4.09977
208.01	4.09408
208.068	4.08825
208.255	4.07565
208.313	4.06916
208.371	4.06257
208.429	4.05587
208.613	4.04081
208.673	4.03499
208.733	4.0291
208.794	4.02312
208.868	4.00762
208.955	3.99908
209.044	3.9903
209.138	3.9813
209.325	3.96495
209.383	3.95667
209.441	3.94816
209.499	3.93943
209.681	3.92509
209.738	3.91533
209.795	3.90531
209.852	3.89498
210.042	3.8771
210.131	3.86758
210.223	3.85779
210.32	3.84769
210.509	3.82771
210.567	3.81489
210.687	3.79708
210.888	3.78452
210.974	3.76923
211.06	3.75337
211.149	3.73691
211.242	3.7198
211.525	3.68304
211.861	3.66165
212.099	3.64881
212.442	3.63389
213.364	3.60189
213.726	3.59589
214.09	3.58964
214.459	3.58321
215.885	3.57173
216.427	3.57151
216.81	3.57328
217.363	3.57852
218.37	3.59547
218.64	3.60226
218.911	3.60895
219.187	3.61553
219.724	3.64003
220.019	3.65371
220.314	3.6669
220.608	3.67956
221.366	3.70961
221.727	3.72313
222.092	3.73611
222.459	3.74866
223.114	3.77349
223.295	3.78068
223.477	3.78765
223.665	3.79445
224.551	3.82341
224.877	3.83349
225.204	3.84329
225.531	3.85279
226.137	3.87444
226.412	3.88267
226.688	3.89075
226.963	3.89869
227.79	3.92359
228.028	3.93109
228.27	3.93838
228.514	3.94551
229.278	3.96621
229.503	3.97302
229.727	3.97966
229.951	3.98616
230.499	4.00367
230.724	4.00981
230.948	4.01588
231.172	4.02186
231.724	4.03463
232.116	4.04536
232.262	4.04989
232.286	4.05228
232.952	4.06996
233.169	4.07533
233.391	4.08058
233.614	4.08574
234.182	4.1039
234.409	4.11024
234.637	4.11644
234.864	4.12253
235.532	4.13868
235.788	4.14361
236.046	4.14845
236.309	4.1532
237.277	4.16247
237.798	4.16552
238.275	4.16759
238.88	4.1694
240.158	4.17216
240.358	4.17178
240.665	4.17079
241.248	4.16932
242.564	4.16327
242.903	4.16042
243.244	4.15751
243.59	4.15455
244.105	4.14902
244.255	4.147
244.41	4.14496
244.567	4.14291
245.436	4.13218
245.604	4.12974
245.774	4.12726
245.948	4.12471
246.456	4.11587
246.621	4.11217
246.788	4.10839
246.959	4.10455
247.566	4.08907
247.757	4.08378
247.93	4.07972
248.056	4.07566
248.557	4.06182
248.758	4.05558
248.959	4.04922
249.16	4.04271
249.55	4.02863
249.713	4.0226
249.877	4.01646
250.046	4.01017
250.447	3.99571
250.571	3.98892
250.699	3.98203
250.829	3.97503
251.136	3.96354
251.297	3.956
251.458	3.94826
251.619	3.94034
251.919	3.92317
252.01	3.91587
252.104	3.9084
252.202	3.90071
252.202	3.90071
252.273	3.90068
252.344	3.90064
252.415	3.90061
252.415	3.90061
252.442	3.89744
252.47	3.8942
252.504	3.89085
253.003	3.86849
253.195	3.85729
253.392	3.84575
253.59	3.83379
254.295	3.80093
254.445	3.79053
254.646	3.77897
254.89	3.76696
255.496	3.73255
255.798	3.71765
256.099	3.70216
256.401	3.68596
257.111	3.64738
257.416	3.63264
257.719	3.61738
258.023	3.60157
259.159	3.5497
259.326	3.54028
259.493	3.53056
259.659	3.52042
260.792	3.45192
261.031	3.44093
261.269	3.42942
261.508	3.41746
262.54	3.36008
263.071	3.33064
263.606	3.29888
264.143	3.26425
264.918	3.20526
265.366	3.17152
265.815	3.13446
266.263	3.09367
267.301	2.99484
267.573	2.96452
267.85	2.93191
268.13	2.89664
269.171	2.76823
269.393	2.74546
269.617	2.72018
269.845	2.69264
