Uv/Vis Spectrum: 1,2-Dihydronaphthalene
Formula: C10H10
CAS: 447-53-0
Melting point: -8
Boiling point: 206.5
Instrument: n.i.g.
Origin: INSTITUTE OF ENERGY PROBLEMS OF CHEMICAL PHYSICS, RAS
Wavelength (nm)	Logarithm epsilon
206.756	4.32743
207.608	4.32635
208.46	4.3252
210.133	4.30485
210.347	4.30446
210.577	4.30399
210.813	4.30337
212.683	4.31732
212.866	4.31865
213.065	4.31998
213.271	4.3213
215.862	4.33784
216.369	4.33745
217.234	4.33791
218.697	4.33735
218.697	4.33735
219.438	4.3311
220.178	4.32486
220.919	4.31861
223.667	4.26884
224.155	4.25067
224.434	4.24295
224.742	4.23909
225.796	4.17806
225.949	4.1668
226.108	4.15547
226.283	4.14398
227.36	4.09587
227.511	4.08361
227.669	4.07134
227.842	4.05907
228.571	3.98825
228.585	3.99596
228.598	4.00353
228.612	4.01101
229.669	3.9714
229.776	3.9741
229.884	3.9768
229.892	3.92309
229.954	3.91381
229.991	3.9795
230.031	3.90436
230.115	3.89484
230.87	3.83829
230.93	3.82807
231.006	3.81777
231.089	3.80732
231.565	3.74775
231.684	3.73787
231.803	3.728
231.923	3.71812
232.534	3.65751
232.55	3.64663
232.574	3.63575
232.613	3.62486
232.955	3.56702
233.111	3.55772
233.274	3.54826
233.452	3.53872
233.933	3.48221
234.086	3.47096
234.245	3.45962
234.42	3.44814
235.195	3.4028
235.31	3.39019
235.433	3.3775
235.572	3.36466
237.637	3.33473
238.849	3.3412
239.581	3.35524
239.985	3.36797
241.492	3.42855
241.787	3.44039
242.09	3.45214
242.408	3.46374
243.476	3.5074
243.616	3.53897
244.027	3.56489
244.891	3.59315
245.214	3.6222
245.262	3.6298
245.343	3.61677
245.501	3.61004
246.424	3.64931
246.717	3.6597
247.017	3.66993
247.333	3.68009
247.646	3.7028
247.649	3.70474
247.652	3.70653
247.655	3.70824
248.83	3.73489
249.227	3.7467
249.633	3.75844
250.053	3.77003
252.126	3.82201
252.632	3.83403
253.268	3.84686
253.589	3.85711
256.82	3.90719
257.386	3.91762
257.96	3.92796
258.548	3.93816
262.17	3.97696
263.613	3.98363
264.889	3.98633
266.585	3.98163
271.074	3.94991
271.983	3.94033
272.554	3.93291
273.278	3.92132
274.4	3.89869
276.066	3.87753
277.447	3.854
278.645	3.82589
280.968	3.76736
281.353	3.75292
281.747	3.73832
282.155	3.72365
283.634	3.67104
283.884	3.65697
284.141	3.64273
284.413	3.62842
285.705	3.56633
285.866	3.55508
286.042	3.54374
286.225	3.53225
286.99	3.48147
287.246	3.47055
287.509	3.45963
287.787	3.4487
288.544	3.39351
288.797	3.38123
289.057	3.36894
289.333	3.35666
290.629	3.29729
290.79	3.28603
290.967	3.2747
291.15	3.26321
292.441	3.20078
292.696	3.18952
292.958	3.17826
293.236	3.16699
294.576	3.11305
294.829	3.10077
295.089	3.08849
295.365	3.07621
296.666	3.01956
296.919	3.00727
297.18	2.99499
297.455	2.98271
299.317	2.9144
299.542	2.90653
299.767	2.89859
299.992	2.89049
302.295	2.82075
302.728	2.80844
303.176	2.79612
303.631	2.78381
306.089	2.72424
306.546	2.7125
307.004	2.70061
307.461	2.68865
308.526	2.65311
308.529	2.65514
308.533	2.65709
308.536	2.65889
310.681	2.59631
310.713	2.59417
310.752	2.59187
310.806	2.58949
310.806	2.58949
311.873	2.57965
312.541	2.56724
