Uv/Vis Spectrum: Di-n-nonyl disulphide
Formula: C18H38S2
CAS: 4485-77-2
Instrument: unknown
Origin: INSTITUTE OF ENERGY PROBLEMS OF CHEMICAL PHYSICS, RAS
Wavelength (nm)	Logarithm epsilon
210.14	2.887
210.32	2.881
210.49	2.877
210.66	2.873
210.83	2.866
211	2.862
211.18	2.858
211.35	2.852
211.52	2.847
211.69	2.843
211.86	2.837
212.04	2.833
212.21	2.829
212.55	2.822
213.41	2.799
214.27	2.772
215.13	2.755
215.99	2.73
216.85	2.705
217.71	2.687
218.57	2.668
219.43	2.655
220.29	2.632
221.15	2.613
222.01	2.595
222.87	2.574
223.73	2.561
224.59	2.542
225.45	2.528
226.31	2.513
227.16	2.496
228.02	2.484
228.88	2.471
229.74	2.459
230.6	2.448
231.46	2.436
232.32	2.427
233.18	2.417
234.04	2.406
234.9	2.398
235.76	2.388
236.62	2.386
237.48	2.386
238.34	2.39
239.2	2.394
240.06	2.4
240.92	2.406
241.78	2.411
242.64	2.415
243.5	2.415
244.36	2.419
245.22	2.425
246.08	2.429
246.94	2.436
247.8	2.438
248.66	2.446
249.52	2.446
250.38	2.455
251.24	2.457
252.09	2.465
252.95	2.467
253.81	2.473
254.67	2.478
255.53	2.484
256.39	2.484
257.25	2.486
258.11	2.488
258.97	2.486
259.83	2.48
260.69	2.473
261.55	2.457
262.41	2.44
263.27	2.421
264.13	2.402
264.99	2.381
265.85	2.363
266.71	2.344
267.57	2.323
268.37	2.305
269.31	2.285
270.1	2.268
270.94	2.248
271.82	2.229
272.73	2.208
273.59	2.187
274.45	2.16
275.31	2.133
276.17	2.103
276.98	2.076
277.88	2.041
278.74	2.007
279.6	1.965
280.39	1.926
281.32	1.884
282.18	1.842
283.04	1.798
283.9	1.757
284.75	1.715
285.59	1.67
286.48	1.627
287.34	1.585
288.2	1.541
289.06	1.502
289.92	1.46
290.65	1.424
291.64	1.387
292.37	1.355
293.36	1.316
294.22	1.282
