Uv/Vis Spectrum: N-(diphenylmethylene)benzenamine-N-oxide
Formula: C19H15NO
CAS: 4504-13-6
Instrument: unknown
Origin: INSTITUTE OF ENERGY PROBLEMS OF CHEMICAL PHYSICS, RAS
Wavelength (nm)	Logarithm epsilon
213.495	4.316
214.64	4.282
215.798	4.248
216.969	4.217
218.152	4.19
219.348	4.169
220.558	4.154
221.781	4.143
223.017	4.137
224.268	4.135
225.532	4.135
226.811	4.138
228.104	4.141
229.413	4.145
230.736	4.148
232.075	4.152
233.429	4.154
234.799	4.156
236.186	4.157
237.588	4.157
239.008	4.157
240.445	4.155
241.899	4.151
243.371	4.145
244.86	4.135
245.923	4.125
247.444	4.113
248.984	4.1
250.544	4.085
252.123	4.069
253.722	4.049
255.342	4.024
256.982	3.995
258.644	3.96
260.327	3.921
262.033	3.878
263.761	3.835
265.511	3.796
267.286	3.765
269.035	3.738
270.857	3.719
272.704	3.707
274.576	3.701
276.474	3.702
278.398	3.708
280.349	3.719
282.328	3.735
284.335	3.755
286.37	3.778
288.435	3.805
290.53	3.834
292.656	3.864
294.813	3.894
297.002	3.925
299.224	3.954
301.479	3.982
303.768	4.006
306.093	4.028
308.453	4.045
310.85	4.058
313.285	4.067
315.758	4.07
317.979	4.069
320.527	4.063
323.116	4.05
325.748	4.033
328.422	4.01
331.141	3.982
333.905	3.951
336.716	3.916
339.575	3.878
342.482	3.839
345.44	3.797
348.449	3.754
351.511	3.71
354.627	3.664
357.8	3.615
361.029	3.562
364.317	3.505
367.666	3.441
371.077	3.369
374.551	3.286
378.092	3.189
