Uv/Vis Spectrum: Benzoic acid, 2,3,4,5,6-pentafluoro-, ethyl ester
Formula: C9H5F5O2
CAS: 4522-93-4
Boiling point: 63.0/ 5 mm
Instrument: SFD-2
Origin: INSTITUTE OF ENERGY PROBLEMS OF CHEMICAL PHYSICS, RAS
Wavelength (nm)	Logarithm epsilon
220.15	3.798
220.67	3.798
221.18	3.798
221.7	3.788
223.25	3.773
224.8	3.758
226.35	3.739
227.9	3.709
229.45	3.675
231	3.635
232.55	3.576
234.1	3.512
235.65	3.418
237.2	3.329
238.75	3.25
240.3	3.191
241.85	3.107
243.4	3.033
244.95	2.994
246.5	2.959
248.05	2.93
249.6	2.9
251.15	2.876
252.7	2.866
254.25	2.866
255.8	2.876
257.35	2.885
258.9	2.905
260.45	2.93
262	2.954
263.55	2.969
265.1	2.979
266.65	3.014
268.2	3.033
269.75	3.048
271.3	3.048
272.85	3.048
274.4	3.038
275.95	3.019
277.5	2.994
279.05	2.964
280.6	2.93
282.15	2.871
283.7	2.831
285.25	2.811
286.8	2.757
288.35	2.693
289.9	2.594
