Uv/Vis Spectrum: Benzoic acid, 3-fluoro-
Formula: C7H5FO2
CAS: 455-38-9
Melting point: 123-124
Instrument: Unicam SP 700
Origin: INSTITUTE OF ENERGY PROBLEMS OF CHEMICAL PHYSICS, RAS
Wavelength (nm)	Logarithm epsilon
207.78	3.58
208.24	3.584
208.78	3.59
209.24	3.596
209.58	3.6
210.25	3.61
210.92	3.621
211.6	3.634
212.27	3.648
212.94	3.665
213.61	3.682
214.29	3.699
214.96	3.716
215.63	3.736
216.3	3.76
216.97	3.777
217.65	3.798
218.32	3.825
218.99	3.845
219.66	3.873
220.34	3.893
221.01	3.924
221.68	3.951
222.35	3.971
223.03	3.988
223.7	4.002
224.37	4.009
225.04	4.019
225.71	4.026
226.39	4.026
227.06	4.026
227.73	4.026
228.4	4.019
229.08	4.009
229.75	3.999
230.42	3.988
231.09	3.971
231.76	3.958
232.44	3.941
233.11	3.92
233.78	3.896
234.45	3.866
235.13	3.832
235.8	3.794
236.47	3.757
237.14	3.709
237.82	3.655
238.49	3.6
239.16	3.552
239.83	3.505
240.5	3.454
241.18	3.399
241.85	3.341
242.52	3.294
243.19	3.246
243.87	3.195
244.54	3.147
245.21	3.099
245.88	3.055
246.55	3.011
247.23	2.96
247.9	2.912
248.57	2.864
249.24	2.834
249.92	2.817
250.59	2.8
251.26	2.786
251.93	2.783
252.61	2.769
253.28	2.769
253.95	2.769
254.62	2.769
255.29	2.776
255.97	2.786
256.64	2.8
257.31	2.81
257.98	2.824
258.66	2.837
259.33	2.851
260	2.868
260.67	2.881
261.34	2.895
262.02	2.909
262.69	2.919
263.36	2.933
264.03	2.95
264.71	2.967
265.38	2.98
266.05	2.994
266.72	3.011
267.39	3.021
268.07	3.035
268.74	3.048
269.41	3.062
270.08	3.079
270.76	3.093
271.43	3.11
272.1	3.123
272.77	3.134
273.45	3.147
274.12	3.161
274.79	3.171
275.44	3.181
276.13	3.188
276.44	3.189
276.81	3.191
277.48	3.195
278.15	3.191
278.82	3.188
279.48	3.183
280.17	3.174
280.84	3.161
281.51	3.151
282.18	3.144
282.86	3.137
283.53	3.127
284.2	3.113
284.87	3.099
285.55	3.079
286.22	3.052
286.89	3.014
287.56	2.967
288.24	2.902
288.91	2.834
289.58	2.752
290.25	2.66
290.92	2.565
291.6	2.49
292.27	2.435
292.94	2.398
293.5	2.368
294.06	2.338
294.39	2.29
294.6	2.234
294.8	2.152
294.96	2.081
295.09	2.027
295.28	1.956
295.63	1.877
295.91	1.812
296.3	1.754
296.97	1.686
297.65	1.608
298.32	1.529
