Uv/Vis Spectrum: 4-Pyridinethiol
Formula: C5H5NS
CAS: 4556-23-4
Melting point: 177 dec
Instrument: n.i.g.
Origin: INSTITUTE OF ENERGY PROBLEMS OF CHEMICAL PHYSICS, RAS
Wavelength (nm)	Logarithm epsilon
220.03	3.99
222.06	4.025
224.38	4.06
226.71	4.088
229.32	4.088
231.64	4.06
233.38	4.018
234.83	3.962
235.99	3.906
236.87	3.851
237.16	3.788
237.45	3.725
238.03	3.662
238.61	3.599
239.19	3.536
239.48	3.473
240.06	3.411
240.93	3.348
241.8	3.285
243.25	3.229
245.28	3.187
247.61	3.159
250.22	3.145
252.83	3.145
255.44	3.152
257.76	3.18
260.38	3.201
262.7	3.222
265.02	3.243
267.63	3.25
269.96	3.271
272.57	3.285
274.89	3.306
277.5	3.32
279.54	3.355
281.57	3.39
283.31	3.432
285.05	3.473
286.79	3.515
288.53	3.564
289.99	3.613
291.44	3.669
292.89	3.725
294.34	3.781
295.79	3.83
297.24	3.878
298.4	3.934
299.85	3.983
301.31	4.039
302.76	4.095
304.5	4.144
306.24	4.193
308.27	4.235
310.3	4.27
312.34	4.304
314.66	4.339
316.98	4.367
319.59	4.374
322.21	4.367
324.53	4.339
326.56	4.297
328.59	4.256
330.33	4.214
332.08	4.165
333.82	4.116
335.27	4.06
336.43	4.004
337.88	3.948
339.04	3.892
339.91	3.837
341.36	3.788
342.24	3.725
343.11	3.669
344.27	3.613
345.43	3.557
346.3	3.501
347.17	3.446
348.04	3.39
349.2	3.334
350.07	3.278
351.23	3.222
352.39	3.166
353.56	3.11
354.72	3.054
356.17	3.006
357.33	2.95
358.78	2.894
360.23	2.845
361.68	2.789
363.13	2.74
364.59	2.684
366.33	2.642
368.07	2.594
369.81	2.545
371.84	2.503
373.88	2.468
375.91	2.426
377.65	2.377
379.39	2.335
381.13	2.293
