Uv/Vis Spectrum: 3,3,4,4,5,5-hexafluoro-3,4,5,6-tetrahydro-6-imino-2-pyridinamine
Formula: C5H3F6N3
CAS: 4556-39-2
Melting point: 159 dec.
Instrument: SF-8
Origin: INSTITUTE OF ENERGY PROBLEMS OF CHEMICAL PHYSICS, RAS
Wavelength (nm)	Logarithm epsilon
202.028	2.572
203.028	2.539
204.028	2.517
205.028	2.508
206.028	2.515
207.028	2.539
208.028	2.579
209.028	2.634
210.028	2.699
211.028	2.772
212.028	2.849
213.028	2.929
214.028	3.009
215.028	3.089
216.028	3.167
217.028	3.244
218.028	3.318
219.028	3.391
220.028	3.461
221.028	3.528
222.028	3.594
223.028	3.658
224.18	3.722
225.18	3.791
226.18	3.848
227.18	3.895
228.18	3.935
229.18	3.97
230.18	4
231.18	4.027
232.18	4.05
233.18	4.071
234.18	4.089
235.18	4.105
236.18	4.12
237.18	4.132
238.18	4.144
239.18	4.154
240.18	4.162
241.18	4.17
242.18	4.176
243.18	4.182
244.18	4.186
245.18	4.19
246.18	4.193
247.18	4.195
248.18	4.196
249.18	4.197
250.18	4.197
251.18	4.196
252.18	4.195
253.18	4.194
254.18	4.191
255.18	4.189
256.18	4.185
257.18	4.182
258.18	4.177
259.18	4.173
260.047	4.168
261.032	4.163
262.032	4.157
263.032	4.15
264.032	4.143
265.032	4.134
266.032	4.122
267.032	4.107
268.032	4.089
269.032	4.067
270.032	4.041
271.032	4.011
272.032	3.977
273.032	3.938
274.032	3.893
275.032	3.844
276.032	3.79
277.032	3.731
278.082	3.666
279.082	3.595
280.082	3.53
281.082	3.47
282.082	3.415
283.082	3.365
284.082	3.319
285.082	3.275
286.082	3.234
287.082	3.192
288.082	3.151
289.082	3.108
290.082	3.065
291.082	3.022
292.082	2.978
293.082	2.936
294.082	2.896
295.082	2.86
296.082	2.827
297.082	2.796
298.082	2.763
