Uv/Vis Spectrum: Azulene, 4,7-dimethyl-
Formula: C12H12
CAS: 46030-99-3
State: <none>
Instrument: n.i.g.
Origin: INSTITUTE OF ENERGY PROBLEMS OF CHEMICAL PHYSICS, RAS
Wavelength (nm)	Logarithm epsilon
220.04	5.157
221.24	5.173
223.01	5.202
224.25	5.225
225.65	5.249
227.05	5.265
228.46	5.269
230.02	5.261
231.26	5.245
232.67	5.213
234.07	5.165
236.53	5.05
238.28	4.972
239.68	4.892
240.73	4.86
242.48	4.839
243.94	4.836
245.29	4.843
247.04	4.876
248.1	4.916
249.5	4.964
250.9	5.028
252.69	5.099
254.99	5.189
257.1	5.262
259.32	5.321
262.12	5.386
263.4	5.407
264.93	5.414
266.33	5.402
267.74	5.386
269.14	5.329
270.54	5.237
272.61	5.121
274.75	5.004
276.15	4.968
277.77	4.954
278.96	4.912
280.36	4.799
282	4.636
284.57	4.49
285.97	4.446
287.16	4.425
288.78	4.406
290.18	4.394
291.51	4.391
292.99	4.394
294.39	4.402
295.79	4.41
297.19	4.414
298.6	4.422
300	4.422
301.4	4.426
302.81	4.422
304.21	4.418
305.61	4.422
307.01	4.422
308.42	4.426
309.97	4.438
311.22	4.458
312.63	4.482
314.03	4.494
315.43	4.522
316.77	4.544
318.24	4.57
319.75	4.599
321.17	4.634
322.44	4.663
323.9	4.699
325.32	4.74
326.65	4.775
328.06	4.815
329.46	4.855
330.88	4.891
332.2	4.919
333.61	4.948
335.07	4.968
336.47	4.988
337.88	5.008
339.28	5.032
340.68	5.044
342.08	5.048
343.49	5.056
344.89	5.044
346.29	5.024
347.7	5.004
349.04	4.983
350.5	4.948
351.9	4.896
353.31	4.847
354.25	4.819
355.45	4.77
357.52	4.687
358.92	4.598
359.83	4.554
360.95	4.483
362.77	4.358
364.53	4.245
365.39	4.195
367.33	4.088
368.99	3.968
370.19	3.899
371.54	3.839
373.26	3.74
374.78	3.654
375.75	3.594
377.15	3.486
378.56	3.394
380.05	3.309
381.05	3.258
382.65	3.199
384.17	3.145
