Uv/Vis Spectrum: p-Bromofluorobenzene
Formula: C6H4BrF
CAS: 460-00-4
Melting point: -17.4
Boiling point: 151.5
Instrument: Zeiss MM12 or Zeiss PMQ II
Origin: INSTITUTE OF ENERGY PROBLEMS OF CHEMICAL PHYSICS, RAS
Wavelength (nm)	Logarithm epsilon
284.899	1.73046
284.722	1.77202
284.554	1.81152
284.394	1.84909
284.242	1.88484
284.098	1.91892
283.96	1.95144
283.829	1.98253
283.704	2.01231
283.585	2.04092
283.47	2.06848
283.36	2.09511
283.253	2.12094
283.151	2.1461
283.051	2.17071
282.953	2.1949
282.858	2.21879
282.763	2.24252
282.67	2.2662
282.578	2.28996
282.485	2.31393
282.392	2.33824
282.297	2.36301
282.202	2.38837
282.104	2.41444
282.004	2.44135
281.901	2.46923
281.795	2.49819
281.684	2.52838
281.57	2.55991
281.45	2.5929
281.325	2.6275
281.195	2.66381
281.058	2.70198
280.914	2.74211
280.764	2.78435
280.606	2.82881
280.439	2.87563
280.264	2.92492
280.081	2.97682
280.081	2.97682
279.94	2.97836
279.799	2.97985
279.671	3.00357
279.667	2.99612
279.663	2.98867
279.658	2.98122
279.658	2.98122
279.315	2.98229
279.174	2.98094
279.032	2.97948
278.89	2.97796
278.89	2.97796
278.522	2.93959
278.203	2.90065
277.924	2.86131
277.678	2.82175
277.455	2.78213
277.455	2.78213
277.332	2.75627
276.895	2.7132
275.915	2.68468
275.915	2.68468
275.778	2.68591
275.641	2.68701
275.504	2.68806
275.504	2.68806
275.063	2.72311
274.7	2.75826
274.401	2.79348
274.154	2.82873
273.945	2.86398
273.763	2.89918
273.594	2.93431
273.428	2.96933
273.251	3.0042
273.251	3.0042
273.15	3.00574
273.04	3.00722
272.926	3.00859
272.926	3.00859
272.29	3.0085
271.712	3.00647
271.104	3.00004
271.104	3.00004
270.579	2.95945
270.162	2.91816
269.774	2.87641
269.34	2.83444
268.786	2.7925
268.786	2.7925
268.445	2.79041
268.247	2.78989
268.021	2.79053
268.021	2.79053
267.62	2.80436
267.36	2.81105
267.018	2.81631
267.018	2.81631
266.782	2.83293
266.483	2.85046
265.978	2.86368
265.978	2.86368
265.808	2.86343
265.63	2.86313
265.448	2.86271
265.448	2.86271
264.953	2.84362
264.695	2.83553
264.452	2.83148
264.452	2.83148
262.918	2.74342
261.94	2.68898
261.389	2.65976
261.144	2.64734
261.087	2.64333
261.087	2.64333
259.22	2.61512
257.955	2.58107
257.067	2.54322
256.345	2.50362
256.345	2.50362
255.731	2.47472
254.662	2.41824
253.827	2.37652
253.827	2.37652
252.353	2.34974
251.074	2.31724
250.219	2.28269
250.219	2.28269
249.54	2.26279
248.943	2.23467
248.385	2.20894
248.385	2.20894
248.13	2.20793
247.906	2.20549
247.523	2.19954
247.396	2.19956
245.102	2.20993
243.658	2.23379
242.671	2.26587
241.767	2.30094
241.767	2.30094
241.494	2.31015
241.19	2.32376
240.908	2.33315
240.908	2.33315
240.352	2.36351
239.808	2.3939
239.276	2.42431
238.755	2.45475
238.245	2.48521
237.745	2.51569
237.254	2.54619
236.773	2.57672
236.301	2.60726
235.838	2.63782
235.382	2.6684
234.935	2.699
234.494	2.72961
234.061	2.76024
233.634	2.79089
233.214	2.82155
232.799	2.85222
232.39	2.88291
231.986	2.91361
231.586	2.94432
231.191	2.97504
230.8	3.00577
230.413	3.03651
230.029	3.06726
229.648	3.09802
229.27	3.12878
228.894	3.15955
228.521	3.19033
228.149	3.22111
227.778	3.25189
227.409	3.28268
227.041	3.31347
226.673	3.34426
226.306	3.37506
225.938	3.40585
225.57	3.43664
225.202	3.46744
225.202	3.46744
224.809	3.4998
224.238	3.54611
223.599	3.58982
222.999	3.61442
222.999	3.61442
222.861	3.62489
222.72	3.63525
222.574	3.64556
222.574	3.64556
221.374	3.68225
220.295	3.71949
219.209	3.75651
219.209	3.75651
218.987	3.77497
218.398	3.80895
217.569	3.84436
216.622	3.86712
215.679	3.86314
215.679	3.86314
215.366	3.86319
215.052	3.86324
214.733	3.86329
214.733	3.86329
213.242	3.87539
211.313	3.87891
209.408	3.87439
207.957	3.86237
207.957	3.86237
206.073	3.8534
204.094	3.84948
202.301	3.86208
202.301	3.86208
201.571	3.88207
200.743	3.90835
200.28	3.93309
200.28	3.93309
199.723	3.96224
199.512	3.99561
199.101	4.02114
199.101	4.02114
198.839	4.05357
198.586	4.08603
198.341	4.11852
198.102	4.15102
197.87	4.18353
197.641	4.21603
197.416	4.24853
197.193	4.28101
196.971	4.31347
196.749	4.34589
196.526	4.37827
196.3	4.41061
196.071	4.44288
195.838	4.47509
195.599	4.50723
195.599	4.50723
195.255	4.53948
194.845	4.57096
194.298	4.59841
193.541	4.61853
192.505	4.62806
191.129	4.6237
191.129	4.6237
189.976	4.59999
188.834	4.57095
187.795	4.5385
186.949	4.50463
186.949	4.50463
186.937	4.50225
186.92	4.49975
186.902	4.49719
186.902	4.49719
186.857	4.4972
186.809	4.49721
186.758	4.49722
186.758	4.49722
186.147	4.47247
185.549	4.44532
184.881	4.42058
184.881	4.42058
184.57	4.40244
