Uv/Vis Spectrum: 2,4-Imidazolidinedione
Formula: C3H4N2O2
CAS: 461-72-3
Melting point: 220-222
Instrument: Unicam SP 500
Origin: INSTITUTE OF ENERGY PROBLEMS OF CHEMICAL PHYSICS, RAS
Wavelength (nm)	Logarithm epsilon
191.81	3.775
191.89	3.772
191.97	3.768
192.05	3.765
192.13	3.762
192.21	3.76
192.29	3.757
192.37	3.754
192.44	3.751
192.52	3.748
192.6	3.746
192.68	3.743
192.76	3.74
192.84	3.736
192.92	3.733
193.24	3.728
193.72	3.712
194.2	3.699
194.69	3.69
195.18	3.683
195.67	3.68
196.16	3.675
196.65	3.672
197.15	3.664
197.65	3.662
198.15	3.662
198.66	3.664
199.17	3.666
199.68	3.666
200.19	3.667
200.71	3.669
201.22	3.669
201.74	3.669
202.27	3.667
202.79	3.667
203.32	3.667
203.86	3.666
204.39	3.664
204.93	3.659
205.47	3.658
206.01	3.653
206.56	3.65
207.11	3.641
207.66	3.635
208.21	3.629
208.77	3.621
209.33	3.611
209.9	3.601
210.46	3.59
211.03	3.577
211.6	3.561
212.18	3.547
212.76	3.532
213.34	3.516
213.93	3.5
214.52	3.481
215.11	3.463
215.7	3.447
216.3	3.441
216.91	3.426
217.51	3.405
218.12	3.383
218.73	3.363
219.35	3.342
219.97	3.318
220.59	3.296
221.22	3.272
221.85	3.251
222.48	3.225
223.12	3.199
223.76	3.177
224.4	3.148
225.05	3.122
225.7	3.096
226.36	3.071
227.02	3.043
227.68	3.014
228.35	2.984
229.02	2.953
229.69	2.923
230.37	2.892
231.05	2.86
231.74	2.828
232.43	2.796
233.13	2.76
233.83	2.728
234.53	2.69
235.24	2.651
235.95	2.611
236.67	2.568
237.39	2.526
238.11	2.474
238.84	2.426
239.58	2.373
240.32	2.32
241.06	2.27
241.81	2.211
242.56	2.156
243.32	2.103
244.08	2.04
244.85	1.979
245.62	1.92
246.4	1.85
247.18	1.78
247.96	1.711
248.76	1.64
249.55	1.576
250.35	1.502
251.16	1.415
251.97	1.341
252.79	1.273
253.61	1.186
254.44	1.1
