Uv/Vis Spectrum: 3-Pyridinamine
Formula: C5H6N2
CAS: 462-08-8
Melting point: 64.5
Boiling point: 252
Instrument: n.i.g.
Origin: INSTITUTE OF ENERGY PROBLEMS OF CHEMICAL PHYSICS, RAS
Wavelength (nm)	Logarithm epsilon
218.67	3.075
219.36	3.094
219.77	3.105
219.91	3.109
220.05	3.113
220.33	3.12
220.47	3.124
220.75	3.131
221.59	3.154
223	3.198
224.51	3.247
225.73	3.281
226.78	3.316
228.84	3.377
229.59	3.403
230.35	3.422
231.48	3.455
233.34	3.509
234.97	3.555
236.59	3.6
237.39	3.615
238.2	3.634
239.01	3.645
239.83	3.645
240.66	3.641
241.49	3.641
242.33	3.63
243.29	3.619
244.02	3.608
245.2	3.583
246.49	3.548
247.48	3.515
248.35	3.489
249.24	3.459
250.16	3.427
251.07	3.385
252.12	3.332
252.85	3.284
253.76	3.228
254.69	3.139
255.22	3.078
255.62	3.023
256.22	2.945
256.65	2.898
257.13	2.85
257.7	2.806
258.46	2.759
259.42	2.711
260.38	2.655
261.14	2.602
261.76	2.561
262.34	2.517
263.32	2.469
264.32	2.413
265.32	2.391
266.33	2.398
268.38	2.473
269.41	2.521
270.46	2.551
272.57	2.621
273.6	2.661
274.71	2.7
276.15	2.74
277.7	2.776
279.1	2.811
280.94	2.851
282.48	2.882
284.37	2.922
285.95	2.953
287.12	2.982
288.31	3.005
289.5	3.023
290.7	3.046
291.96	3.066
294.2	3.092
296.88	3.113
298.79	3.125
300.71	3.131
302.01	3.139
303.95	3.139
305.97	3.131
307.32	3.124
308.68	3.113
310.05	3.094
311.43	3.079
312.9	3.053
314.23	3.02
315.65	2.99
317.08	2.964
318.52	2.919
320	2.871
321.45	2.819
322.94	2.77
324.08	2.727
325.95	2.621
326.71	2.564
327.48	2.499
329.02	2.398
330.57	2.294
332.14	2.186
333.73	2.097
335.33	1.955
336.95	1.847
338.58	1.724
340.23	1.635
340.56	1.631
340.89	1.628
341.22	1.624
