Uv/Vis Spectrum: Carbonothioic dichloride
Formula: CCl2S
CAS: 463-71-8
Instrument: Cary 14
Origin: INSTITUTE OF ENERGY PROBLEMS OF CHEMICAL PHYSICS, RAS
Wavelength (nm)	Logarithm epsilon
231.57	2.934
231.62	2.934
231.67	2.936
231.72	2.938
231.77	2.938
231.82	2.94
231.87	2.942
231.92	2.942
232.12	2.951
232.22	2.953
232.32	2.959
232.42	2.961
232.52	2.965
232.82	2.978
232.92	2.98
233.02	2.984
233.13	2.988
233.23	2.99
233.63	3.005
233.73	3.006
233.83	3.012
233.93	3.015
234.04	3.021
234.34	3.033
234.44	3.034
234.54	3.039
234.65	3.041
234.75	3.044
235.16	3.061
235.26	3.062
235.36	3.064
235.47	3.07
235.57	3.071
235.98	3.091
236.09	3.091
236.19	3.094
236.29	3.096
236.4	3.1
236.5	3.103
236.81	3.117
236.92	3.121
237.02	3.121
237.12	3.127
237.65	3.143
237.75	3.147
237.86	3.149
237.96	3.154
238.28	3.166
238.38	3.168
238.49	3.172
238.59	3.174
238.8	3.185
238.91	3.183
239.02	3.185
239.12	3.189
239.23	3.192
239.33	3.195
239.44	3.199
239.55	3.202
239.65	3.203
239.76	3.204
239.87	3.208
239.97	3.215
240.08	3.215
240.19	3.219
240.29	3.22
240.4	3.221
240.51	3.227
240.62	3.232
240.72	3.24
240.83	3.241
240.94	3.242
241.05	3.243
241.15	3.246
241.26	3.259
241.37	3.263
241.48	3.263
241.59	3.258
241.69	3.259
241.8	3.27
241.91	3.277
242.02	3.282
242.13	3.283
242.24	3.284
242.35	3.284
242.45	3.283
242.56	3.287
242.67	3.3
242.78	3.302
242.89	3.305
243	3.306
243.11	3.307
243.22	3.311
243.33	3.318
243.44	3.321
243.55	3.329
243.66	3.329
243.77	3.329
243.88	3.332
243.99	3.338
244.1	3.346
244.21	3.35
244.32	3.346
244.43	3.345
244.54	3.346
244.65	3.347
244.77	3.362
244.88	3.369
244.99	3.369
245.1	3.366
245.21	3.366
245.32	3.372
245.43	3.381
245.55	3.381
245.66	3.385
245.77	3.39
245.88	3.39
245.99	3.393
246.11	3.393
246.22	3.397
246.33	3.404
246.44	3.407
246.56	3.404
246.67	3.403
246.78	3.41
246.9	3.414
247.01	3.419
247.12	3.419
247.24	3.418
247.35	3.42
247.46	3.421
247.58	3.421
247.69	3.425
247.8	3.434
247.92	3.438
248.03	3.442
248.15	3.44
248.26	3.441
248.37	3.443
248.49	3.444
248.6	3.445
248.72	3.454
248.83	3.452
248.95	3.452
249.06	3.453
249.18	3.453
249.29	3.454
249.41	3.457
249.52	3.463
249.64	3.467
249.75	3.461
249.87	3.458
249.99	3.463
250.1	3.469
250.22	3.467
250.33	3.466
250.45	3.467
250.57	3.467
250.68	3.466
250.8	3.466
250.92	3.469
251.03	3.474
251.15	3.477
251.27	3.478
251.38	3.478
251.5	3.478
251.62	3.475
251.74	3.474
251.85	3.471
251.97	3.472
252.09	3.48
252.21	3.48
252.33	3.477
252.44	3.475
252.56	3.477
252.68	3.477
252.8	3.489
252.92	3.478
253.04	3.478
253.16	3.484
253.27	3.472
253.39	3.469
253.51	3.469
253.63	3.473
253.75	3.479
253.87	3.483
253.99	3.483
254.11	3.477
254.23	3.477
254.35	3.477
254.47	3.478
254.59	3.483
254.71	3.477
254.83	3.472
254.95	3.468
255.07	3.465
255.19	3.465
255.31	3.465
255.43	3.467
255.55	3.467
255.68	3.469
255.8	3.468
255.92	3.462
256.04	3.463
256.16	3.463
256.28	3.46
256.41	3.452
256.53	3.447
256.65	3.447
256.77	3.447
256.89	3.446
257.02	3.445
257.14	3.439
257.26	3.442
257.38	3.445
257.51	3.448
257.63	3.438
257.75	3.435
257.88	3.428
258	3.425
258.12	3.423
258.25	3.407
258.37	3.397
258.5	3.395
258.62	3.41
258.74	3.412
258.87	3.409
258.99	3.409
259.12	3.404
259.24	3.402
259.37	3.399
259.49	3.395
259.62	3.388
259.74	3.38
259.87	3.361
259.99	3.353
260.12	3.348
260.24	3.353
260.37	3.36
260.49	3.368
260.62	3.361
260.75	3.351
260.87	3.348
261	3.34
261.12	3.338
261.25	3.33
261.38	3.324
261.5	3.306
261.63	3.303
261.76	3.302
261.89	3.298
262.01	3.291
262.14	3.289
262.27	3.304
262.39	3.307
262.52	3.298
262.65	3.277
262.78	3.268
262.91	3.237
263.03	3.224
263.16	3.22
263.29	3.219
263.42	3.225
263.55	3.233
263.68	3.202
263.81	3.199
263.94	3.2
264.07	3.172
264.19	3.156
264.32	3.144
264.45	3.138
264.58	3.135
264.71	3.114
264.84	3.113
264.97	3.117
265.1	3.124
265.23	3.124
265.37	3.123
265.5	3.104
265.63	3.079
265.76	3.068
265.89	3.054
266.02	3.033
266.15	3.038
266.28	3.046
266.41	3.054
266.55	3.003
266.68	2.955
266.81	2.936
266.94	2.963
267.07	3.014
267.21	3.017
267.34	2.99
267.47	2.963
267.6	2.959
267.74	2.945
267.87	2.925
268	2.923
268.14	2.932
268.27	2.93
268.4	2.919
268.54	2.914
268.67	2.894
268.8	2.894
268.94	2.875
269.07	2.863
269.21	2.839
269.34	2.823
269.48	2.826
269.61	2.85
269.75	2.837
269.88	2.758
270.02	2.752
270.15	2.755
270.29	2.774
270.42	2.798
270.56	2.809
270.69	2.765
270.83	2.7
270.97	2.682
271.1	2.686
271.24	2.704
271.38	2.718
271.51	2.722
271.65	2.693
271.79	2.658
271.92	2.634
272.06	2.607
272.2	2.603
272.33	2.638
272.47	2.642
272.61	2.646
272.75	2.638
272.89	2.594
273.02	2.55
273.16	2.544
273.3	2.544
273.44	2.55
273.58	2.544
273.72	2.544
273.86	2.555
274	2.57
274.13	2.517
274.27	2.495
274.41	2.458
274.55	2.438
274.69	2.432
274.83	2.432
274.97	2.464
275.11	2.445
275.25	2.418
275.39	2.397
275.54	2.389
275.68	2.374
275.82	2.35
275.96	2.334
276.1	2.325
276.24	2.342
276.38	2.35
276.52	2.382
276.67	2.382
276.81	2.316
276.95	2.298
277.09	2.27
277.24	2.27
277.38	2.26
277.52	2.28
277.66	2.298
277.81	2.298
277.95	2.298
278.09	2.289
278.24	2.26
278.38	2.229
278.52	2.218
278.67	2.207
278.81	2.207
278.96	2.218
279.1	2.207
279.25	2.207
279.39	2.218
279.54	2.207
279.68	2.195
279.83	2.146
279.97	2.133
280.12	2.133
280.26	2.133
280.41	2.183
280.55	2.239
280.7	2.207
280.85	2.183
280.99	2.146
281.14	2.133
