Uv/Vis Spectrum: Camphor
Formula: C10H16O
CAS: 464-48-2
Melting point: 178.8
Boiling point: 207.4
Instrument: n.i.g.
Origin: INSTITUTE OF ENERGY PROBLEMS OF CHEMICAL PHYSICS, RAS
Wavelength (nm)	Logarithm epsilon
251.018	3.5407
251.721	3.57808
252.426	3.61267
253.13	3.64485
253.834	3.67494
254.537	3.70317
255.239	3.72977
255.941	3.75491
256.641	3.77873
257.34	3.80135
258.037	3.82289
258.733	3.84343
259.425	3.86306
260.116	3.88185
260.804	3.89986
261.489	3.91714
261.489	3.91714
262.078	3.93416
262.668	3.95068
263.259	3.96674
263.85	3.98235
264.439	3.99755
265.027	4.01236
265.612	4.02679
266.194	4.04087
266.773	4.05462
267.347	4.06805
267.916	4.08117
268.48	4.094
269.037	4.10655
269.587	4.11884
270.13	4.13087
270.664	4.14266
271.19	4.15421
271.705	4.16554
272.21	4.17666
272.704	4.18756
273.187	4.19827
273.657	4.20878
274.115	4.2191
274.558	4.22925
274.987	4.23922
275.401	4.24902
275.8	4.25866
276.182	4.26814
276.182	4.26814
277.274	4.29145
277.891	4.30461
278.202	4.31111
278.378	4.31387
278.378	4.31387
278.572	4.31922
278.945	4.32626
279.364	4.33215
279.364	4.33215
279.767	4.34198
280.18	4.35151
280.602	4.36078
281.031	4.36981
281.464	4.37862
281.9	4.38724
282.337	4.39568
282.774	4.40396
283.209	4.4121
283.209	4.4121
284.16	4.42344
284.922	4.4317
285.266	4.43612
285.266	4.43612
286.839	4.44228
287.503	4.44503
287.825	4.44679
287.825	4.44679
289.095	4.44664
290.368	4.4465
291.647	4.44635
291.647	4.44635
292.55	4.44205
293.357	4.43713
294.083	4.43163
294.743	4.42555
295.35	4.41896
295.92	4.41186
296.467	4.40431
297.006	4.39633
297.551	4.38796
297.551	4.38796
297.885	4.38057
298.221	4.37304
298.561	4.36536
298.902	4.35754
299.246	4.34956
299.592	4.34142
299.94	4.33312
300.289	4.32464
300.64	4.31599
300.993	4.30716
301.348	4.29813
301.703	4.2889
302.06	4.27947
302.417	4.26982
302.776	4.25994
303.135	4.24983
303.495	4.23947
303.855	4.22885
304.216	4.21797
304.577	4.20679
304.938	4.19532
305.299	4.18354
305.659	4.17143
306.019	4.15896
306.379	4.14613
306.738	4.13291
307.097	4.11927
307.097	4.11927
307.954	4.09075
308.666	4.06703
309.208	4.0488
309.551	4.03657
309.671	4.03063
309.671	4.03063
310.208	4.02104
310.627	4.00118
310.881	3.98501
310.881	3.98501
311.374	3.96664
311.868	3.94754
312.362	3.92763
312.857	3.90682
313.352	3.88503
313.849	3.86213
314.346	3.83801
314.845	3.81251
315.345	3.78546
315.847	3.75663
316.351	3.72575
316.857	3.69252
317.365	3.65652
317.875	3.61722
318.388	3.57397
318.904	3.52584
319.423	3.47161
319.945	3.40947
320.469	3.33672
320.998	3.24899
321.53	3.13852
