Uv/Vis Spectrum: Benzene, 1,3-dimethyl-5-(1-methylethyl)-
Formula: C11H16
CAS: 4706-90-5
Instrument: unknown
Origin: INSTITUTE OF ENERGY PROBLEMS OF CHEMICAL PHYSICS, RAS
Wavelength (nm)	Logarithm epsilon
232.4	2.126
232.4	2.125
232.41	2.124
232.41	2.122
232.54	2.08
232.75	2.029
232.96	1.97
233.18	1.905
233.39	1.828
233.6	1.758
233.81	1.711
234.02	1.673
234.7	1.583
234.91	1.549
235.17	1.511
235.46	1.476
235.76	1.444
236.1	1.41
236.44	1.38
236.77	1.349
237.08	1.338
237.54	1.333
238	1.333
238.44	1.338
238.81	1.347
239.06	1.357
239.4	1.38
239.78	1.403
240.08	1.424
240.46	1.45
240.8	1.476
241.19	1.499
241.53	1.518
241.85	1.538
242.19	1.559
242.55	1.581
242.83	1.597
243.17	1.615
243.51	1.633
243.82	1.65
244.14	1.668
244.52	1.685
244.86	1.7
245.2	1.718
245.54	1.731
245.83	1.748
246.17	1.764
246.5	1.778
246.81	1.791
247.15	1.806
247.47	1.819
247.78	1.831
248.09	1.844
248.39	1.856
248.71	1.867
249.01	1.879
249.35	1.889
249.64	1.901
249.94	1.912
250.24	1.923
250.53	1.936
250.83	1.946
251.17	1.955
251.46	1.965
251.76	1.974
252.02	1.986
252.27	1.999
252.57	2.008
252.86	2.017
253.12	2.027
253.37	2.039
253.67	2.049
253.96	2.059
254.22	2.07
254.47	2.079
254.72	2.088
254.98	2.097
255.28	2.104
255.57	2.111
255.91	2.115
256.25	2.121
256.55	2.128
256.8	2.137
257.05	2.147
257.27	2.157
257.52	2.166
257.73	2.174
258.07	2.18
258.41	2.176
258.75	2.171
259.13	2.168
259.51	2.171
259.85	2.177
260.1	2.185
260.31	2.195
260.52	2.203
260.78	2.211
261.03	2.218
261.33	2.224
261.67	2.228
262.05	2.227
262.43	2.228
262.77	2.233
263.02	2.239
263.23	2.247
263.43	2.256
263.57	2.264
263.74	2.271
263.88	2.279
264.04	2.288
264.17	2.293
264.25	2.296
264.33	2.299
264.4	2.301
264.46	2.302
264.51	2.303
264.56	2.303
264.61	2.304
264.67	2.304
264.71	2.304
264.78	2.304
264.85	2.304
264.92	2.303
265.01	2.301
265.09	2.298
265.15	2.296
265.25	2.291
265.35	2.287
265.43	2.283
265.52	2.278
265.59	2.274
265.69	2.269
265.78	2.265
265.87	2.262
265.94	2.259
266.03	2.254
266.1	2.251
266.2	2.248
266.28	2.245
266.37	2.243
266.45	2.24
266.52	2.238
266.62	2.235
266.71	2.234
266.78	2.232
266.87	2.231
266.96	2.229
267.04	2.228
267.13	2.227
267.21	2.224
267.3	2.221
267.38	2.216
267.47	2.212
267.55	2.207
267.63	2.202
267.72	2.196
267.81	2.191
267.87	2.187
267.98	2.18
268.06	2.173
268.15	2.168
268.23	2.163
268.31	2.159
268.4	2.154
268.48	2.149
268.57	2.144
268.65	2.14
268.74	2.136
268.82	2.132
268.9	2.128
268.99	2.125
269.07	2.123
269.15	2.12
269.25	2.118
269.32	2.117
269.41	2.116
269.5	2.117
269.59	2.118
269.67	2.12
269.75	2.124
269.84	2.127
269.92	2.131
270.02	2.137
270.1	2.144
270.16	2.151
270.26	2.162
270.35	2.173
270.43	2.185
270.52	2.198
270.61	2.21
270.69	2.218
270.77	2.226
270.86	2.233
270.94	2.237
271.02	2.24
271.11	2.242
271.18	2.243
271.27	2.244
271.36	2.244
271.45	2.244
271.53	2.244
271.61	2.242
271.7	2.241
271.78	2.237
271.87	2.228
271.96	2.22
272.04	2.212
272.13	2.203
272.21	2.195
272.3	2.186
272.38	2.179
272.45	2.171
272.55	2.162
272.62	2.153
272.72	2.144
272.8	2.136
272.89	2.127
272.97	2.117
273.04	2.108
273.14	2.097
273.23	2.085
273.31	2.076
273.4	2.062
273.48	2.051
273.56	2.037
273.65	2.022
273.73	2.006
273.82	1.99
273.89	1.98
273.99	1.969
274.07	1.959
274.14	1.949
274.24	1.938
274.33	1.932
274.4	1.926
274.5	1.919
274.56	1.914
274.67	1.907
274.75	1.903
274.84	1.896
274.92	1.891
274.99	1.884
275.08	1.877
275.17	1.868
275.25	1.862
275.34	1.852
275.43	1.842
275.51	1.834
275.6	1.823
275.68	1.812
275.77	1.803
275.85	1.794
275.94	1.783
276.02	1.77
276.1	1.758
276.19	1.745
276.27	1.735
276.36	1.721
276.44	1.703
276.53	1.685
276.61	1.67
276.7	1.658
276.77	1.644
276.87	1.624
276.95	1.611
277.02	1.598
277.12	1.579
277.21	1.564
277.29	1.549
277.38	1.533
277.46	1.511
277.54	1.494
277.63	1.476
277.71	1.457
277.79	1.44
277.88	1.417
277.96	1.4
278.05	1.38
278.16	1.358
278.22	1.341
278.31	1.323
278.39	1.297
278.48	1.278
