Uv/Vis Spectrum: Propene, 2-nitro-
Formula: C3H5NO2
CAS: 4749-28-4
Boiling point: 57/ 100 mm
Instrument: SF-4
Origin: INSTITUTE OF ENERGY PROBLEMS OF CHEMICAL PHYSICS, RAS
Wavelength (nm)	Logarithm epsilon
210.58	3.744
211.3	3.75
212.03	3.755
212.75	3.761
213.62	3.765
214.49	3.77
215.36	3.774
216.23	3.778
217.25	3.781
218.26	3.785
219.42	3.788
220.72	3.789
222.03	3.791
223.33	3.791
224.64	3.789
225.94	3.787
227.1	3.785
228.26	3.782
229.28	3.778
230.14	3.774
231.16	3.77
232.17	3.766
232.9	3.761
233.77	3.757
234.64	3.752
235.36	3.747
236.09	3.742
236.81	3.737
237.54	3.731
238.26	3.725
238.84	3.719
239.57	3.714
240.29	3.708
240.72	3.701
241.45	3.696
241.88	3.689
242.61	3.684
243.19	3.677
243.77	3.67
244.35	3.663
244.78	3.656
245.36	3.649
245.94	3.642
246.52	3.635
247.1	3.627
247.68	3.619
248.12	3.612
248.84	3.604
249.42	3.596
249.86	3.588
250.43	3.579
251.01	3.571
251.45	3.562
252.03	3.553
252.46	3.544
252.9	3.535
253.33	3.524
253.77	3.515
254.35	3.505
254.78	3.495
255.22	3.483
255.65	3.472
256.23	3.461
256.67	3.449
257.1	3.437
257.54	3.425
257.97	3.413
258.41	3.4
258.84	3.388
259.28	3.374
259.71	3.361
260.15	3.346
260.58	3.33
260.89	3.316
261.3	3.297
261.74	3.28
262.17	3.263
262.61	3.245
263.19	3.227
263.62	3.207
264.06	3.187
264.64	3.166
265.22	3.143
265.8	3.12
266.38	3.095
267.1	3.068
267.68	3.04
268.41	3.014
269.13	2.986
269.71	2.951
270.43	2.919
271.16	2.884
272.03	2.845
272.9	2.81
273.77	2.771
274.64	2.728
275.65	2.681
276.81	2.637
277.97	2.598
279.13	2.556
280.29	2.509
281.5	2.46
282.75	2.412
283.91	2.363
285.3	2.298
286.42	2.249
287.68	2.196
288.99	2.142
290.14	2.098
291.59	2.045
292.9	2.007
