Uv/Vis Spectrum: 9,10[1',2']-Benzenoanthracene, 9,10-dihydro-
Formula: C20H14
CAS: 477-75-8
Melting point: 253
Instrument: Zeiss PMQ II
Origin: INSTITUTE OF ENERGY PROBLEMS OF CHEMICAL PHYSICS, RAS
Wavelength (nm)	Logarithm epsilon
207.81	4.814
207.9	4.816
207.99	4.816
208.09	4.819
208.18	4.821
208.27	4.821
208.37	4.823
208.46	4.825
208.55	4.825
208.65	4.827
209.12	4.819
209.59	4.819
210.06	4.812
210.54	4.802
211.01	4.793
211.49	4.782
211.97	4.776
212.46	4.767
212.95	4.757
213.43	4.752
213.92	4.746
214.42	4.74
214.91	4.735
215.41	4.733
215.91	4.731
216.41	4.735
216.92	4.738
217.42	4.735
217.93	4.725
218.44	4.686
218.96	4.646
219.48	4.607
219.99	4.554
220.52	4.505
221.04	4.434
221.57	4.341
222.09	4.266
222.63	4.174
223.16	4.131
223.7	4.11
224.24	4.093
224.78	4.063
225.32	4.018
225.87	3.988
226.42	3.967
226.97	3.95
227.53	3.935
228.08	3.922
228.64	3.91
229.21	3.901
229.77	3.892
230.34	3.882
230.91	3.871
231.49	3.86
232.07	3.848
232.65	3.831
233.23	3.818
233.82	3.794
234.4	3.775
235	3.758
235.59	3.739
236.19	3.72
236.79	3.698
237.4	3.681
238	3.658
238.61	3.632
239.23	3.604
239.84	3.583
240.46	3.557
241.09	3.532
241.71	3.504
242.34	3.474
242.98	3.446
243.61	3.414
244.25	3.385
244.89	3.344
245.54	3.31
246.19	3.271
246.84	3.25
247.5	3.231
248.16	3.218
248.82	3.201
249.49	3.171
250.16	3.148
250.84	3.128
251.51	3.107
252.2	3.088
252.88	3.075
253.57	3.064
254.26	3.054
254.96	3.045
255.66	3.041
256.37	3.039
257.07	3.041
257.79	3.045
258.5	3.056
259.22	3.067
259.95	3.084
260.67	3.114
261.41	3.16
262.14	3.201
262.88	3.239
263.63	3.259
264.38	3.271
265.13	3.282
265.89	3.291
266.65	3.293
267.42	3.303
268.07	3.321
268.51	3.347
268.8	3.364
268.97	3.378
269.12	3.393
269.28	3.404
269.59	3.434
269.9	3.457
270.21	3.472
270.53	3.493
270.84	3.523
271.16	3.549
271.48	3.553
271.79	3.553
272.11	3.549
272.43	3.519
272.75	3.498
273.07	3.474
273.39	3.455
273.71	3.438
274.03	3.427
274.36	3.41
274.68	3.395
275.01	3.389
275.33	3.387
275.66	3.385
275.98	3.385
276.31	3.387
276.64	3.391
276.97	3.402
277.3	3.421
277.63	3.449
277.96	3.528
278.3	3.613
278.63	3.653
278.96	3.677
279.3	3.679
279.63	3.677
279.97	3.664
280.3	3.634
280.63	3.593
280.99	3.551
281.33	3.513
281.67	3.468
282.03	3.419
282.35	3.378
282.93	3.295
283.45	3.202
284.11	3.08
284.59	2.969
284.92	2.889
285.32	2.795
285.82	2.67
286.19	2.583
286.45	2.511
286.64	2.464
286.9	2.399
287.09	2.352
287.41	2.294
287.76	2.247
288.12	2.196
288.48	2.145
288.83	2.087
289.2	2.023
289.56	1.972
289.92	1.921
290.28	1.867
