Uv/Vis Spectrum: Benzofuroxan
Formula: C6H4N2O2
CAS: 480-96-6
Instrument: Beckman DU
Origin: INSTITUTE OF ENERGY PROBLEMS OF CHEMICAL PHYSICS, RAS
Wavelength (nm)	Logarithm epsilon
250.61	3.62
251.72	3.619
252.81	3.618
253.99	3.619
255.02	3.623
256.12	3.628
257.11	3.635
258.09	3.642
259.07	3.65
260.15	3.655
261.28	3.66
262.38	3.662
263.49	3.665
264.51	3.666
265.69	3.67
266.34	3.673
266.82	3.678
267.66	3.689
268.52	3.702
269.37	3.717
270.23	3.731
271.21	3.744
272.69	3.751
273.79	3.749
274.89	3.741
276	3.734
276.86	3.722
277.59	3.707
278.33	3.692
278.94	3.675
279.92	3.652
280.36	3.649
281.03	3.647
281.66	3.648
282.13	3.65
283.23	3.655
284.36	3.657
285.44	3.657
286.55	3.657
287.64	3.657
288.64	3.654
289.53	3.649
290.17	3.645
290.9	3.64
291.57	3.635
292.36	3.63
293.54	3.62
294.53	3.612
295.23	3.604
296.4	3.592
297.46	3.583
298.44	3.571
299.67	3.558
300.75	3.556
301.88	3.556
302.98	3.558
304.05	3.563
305.19	3.568
306.66	3.576
307.66	3.583
308.75	3.59
309.73	3.603
310.71	3.615
311.57	3.628
312.43	3.642
313.29	3.657
314.14	3.67
315.51	3.69
316.6	3.709
317.46	3.724
318.3	3.739
319.05	3.754
319.91	3.769
320.73	3.787
321.38	3.801
322.12	3.815
322.98	3.83
323.83	3.843
324.57	3.86
325.18	3.877
325.92	3.895
326.66	3.912
327.39	3.927
328.13	3.942
328.86	3.959
329.6	3.976
330.21	3.994
331.07	4.006
331.81	4.021
332.67	4.036
333.4	4.05
334.14	4.065
334.87	4.08
335.73	4.092
336.59	4.105
338.55	4.137
339.41	4.152
340.39	4.162
341.38	4.172
342.36	4.179
343.34	4.186
344.44	4.191
345.55	4.196
346.65	4.196
347.75	4.196
348.86	4.194
349.96	4.189
351.07	4.181
352.05	4.174
353.03	4.164
354.01	4.157
354.99	4.149
355.97	4.139
356.95	4.127
358.46	4.108
359.65	4.092
360.63	4.08
361.39	4.065
362.1	4.048
362.72	4.028
363.33	4.011
363.94	3.991
364.44	3.971
364.93	3.954
365.42	3.932
365.82	3.91
366.18	3.889
366.52	3.865
366.89	3.843
367.13	3.82
367.5	3.801
367.62	3.778
