Uv/Vis Spectrum: <alpha>-Santonin
Formula: C15H18O3
CAS: 481-06-1
Melting point: 174
Instrument: Zeiss VSU-1
Origin: INSTITUTE OF ENERGY PROBLEMS OF CHEMICAL PHYSICS, RAS
Wavelength (nm)	Logarithm epsilon
202.88	3.604
202.99	3.594
203.22	3.583
203.72	3.566
204.57	3.553
205.4	3.542
206.26	3.536
207.11	3.532
207.96	3.532
208.8	3.536
209.65	3.542
210.5	3.549
211.34	3.563
212.19	3.576
213.04	3.593
213.88	3.607
214.73	3.627
215.58	3.644
216.43	3.667
217.27	3.689
218.12	3.709
218.96	3.729
219.81	3.75
220.66	3.773
221.5	3.794
222.35	3.811
223.2	3.835
224.04	3.852
224.89	3.865
225.73	3.886
226.58	3.903
227.43	3.92
228.27	3.937
229.12	3.954
229.97	3.967
230.81	3.981
231.66	3.994
232.51	4.005
233.35	4.018
234.19	4.031
235.05	4.042
235.89	4.052
236.74	4.062
237.58	4.07
238.43	4.076
239.28	4.083
240.1	4.091
240.96	4.092
241.82	4.093
242.67	4.089
243.51	4.089
244.36	4.083
245.21	4.079
246.05	4.072
246.9	4.062
247.74	4.055
248.59	4.045
249.44	4.035
250.28	4.025
251.13	4.015
251.98	4.005
252.82	3.994
253.65	3.985
254.52	3.977
255.32	3.969
256.21	3.957
257.11	3.949
257.9	3.94
258.78	3.931
259.6	3.923
260.49	3.913
261.29	3.906
262.12	3.897
262.98	3.889
263.83	3.882
264.68	3.872
265.52	3.865
266.37	3.855
267.21	3.845
268.06	3.835
268.91	3.821
269.75	3.807
270.6	3.797
271.45	3.78
272.29	3.767
273.14	3.75
273.99	3.729
274.83	3.702
275.68	3.675
276.53	3.644
277.37	3.607
278.22	3.563
279.07	3.529
279.91	3.488
280.76	3.434
281.61	3.39
282.45	3.339
283.3	3.274
284.15	3.216
284.99	3.148
285.84	3.084
286.69	3.012
287.53	2.948
288.38	2.856
289.22	2.764
290.07	2.683
290.69	2.618
291.35	2.546
291.74	2.507
292.32	2.451
292.83	2.396
293.29	2.34
293.76	2.278
294.3	2.211
294.73	2.135
295.15	2.065
295.59	1.985
296	1.898
