Uv/Vis Spectrum: 2,2'-Biphenyldicarboxylic acid
Formula: C14H10O4
CAS: 482-05-3
Melting point: 233.5
Boiling point: sub.
Instrument: unknown
Origin: INSTITUTE OF ENERGY PROBLEMS OF CHEMICAL PHYSICS, RAS
Wavelength (nm)	Logarithm epsilon
215.55	4.763
216.72	4.742
217.73	4.717
218.9	4.696
220.07	4.675
221.4	4.654
222.74	4.634
224.08	4.617
225.58	4.605
226.92	4.588
228.26	4.571
229.43	4.55
230.77	4.534
232.11	4.513
233.44	4.5
234.61	4.475
235.78	4.455
236.79	4.43
237.79	4.405
238.63	4.371
239.63	4.346
240.47	4.317
241.3	4.284
242.14	4.255
242.98	4.221
243.81	4.192
244.65	4.163
245.48	4.134
246.49	4.105
247.32	4.072
248.33	4.042
249.16	4.013
250	3.98
250.83	3.947
251.67	3.918
252.51	3.888
253.34	3.855
254.35	3.826
255.01	3.793
256.02	3.768
257.02	3.739
257.86	3.709
258.86	3.684
259.7	3.655
261.03	3.634
262.21	3.61
263.54	3.589
265.05	3.585
266.55	3.593
267.89	3.61
269.23	3.622
270.57	3.634
271.9	3.655
273.24	3.672
274.58	3.684
275.92	3.701
277.25	3.718
278.59	3.734
280.1	3.743
281.6	3.751
283.11	3.755
284.61	3.743
286.12	3.734
287.46	3.714
288.79	3.693
289.96	3.672
290.97	3.647
291.97	3.622
292.97	3.593
293.98	3.568
294.81	3.539
295.65	3.505
296.32	3.472
297.15	3.443
297.66	3.406
298.16	3.372
298.83	3.339
299.33	3.306
299.83	3.272
300.33	3.239
300.83	3.202
301.25	3.165
301.67	3.127
302.17	3.089
302.57	3.053
303.01	3.018
303.51	2.981
304.01	2.943
304.4	2.911
304.85	2.873
305.31	2.832
305.61	2.803
306.02	2.764
306.42	2.727
306.85	2.689
307.25	2.655
307.69	2.619
308.14	2.583
308.52	2.548
308.93	2.516
309.39	2.48
309.86	2.444
310.31	2.403
310.72	2.37
311.2	2.336
311.63	2.298
312.04	2.265
312.4	2.229
312.87	2.19
