Uv/Vis Spectrum: 2-Methyl-2H-indazole
Formula: C8H8N2
CAS: 4838-00-0
Melting point: 56
Instrument: Beckman DU
Origin: INSTITUTE OF ENERGY PROBLEMS OF CHEMICAL PHYSICS, RAS
Wavelength (nm)	Logarithm epsilon
219.75	4.289
220.03	4.274
220.24	4.259
220.65	4.223
221.07	4.189
221.49	4.15
221.91	4.118
222.33	4.076
222.75	4.035
223.18	4.003
223.6	3.963
224.03	3.928
224.46	3.89
224.89	3.856
225.32	3.818
225.76	3.781
226.2	3.745
226.63	3.704
227.07	3.67
227.52	3.63
227.96	3.591
228.4	3.557
228.85	3.517
229.3	3.478
229.75	3.446
230.2	3.406
230.66	3.374
231.11	3.335
231.57	3.303
232.03	3.269
232.49	3.235
232.95	3.201
233.42	3.169
233.88	3.139
234.35	3.111
234.82	3.083
235.29	3.058
235.77	3.049
236.24	3.045
236.72	3.047
237.2	3.06
237.68	3.077
238.17	3.098
238.65	3.117
239.14	3.137
239.63	3.158
240.12	3.179
240.62	3.201
241.11	3.222
241.61	3.25
242.11	3.271
242.61	3.292
243.12	3.322
243.62	3.346
243.78	3.353
244.65	3.388
245.45	3.42
245.67	3.429
246.19	3.457
246.71	3.48
247.23	3.508
247.75	3.531
248.28	3.551
248.8	3.574
249.33	3.598
249.87	3.619
250.4	3.642
250.94	3.666
251.48	3.689
252.02	3.713
252.56	3.736
253.11	3.76
253.66	3.788
254.21	3.809
254.76	3.835
255.32	3.858
255.88	3.879
256.44	3.901
257	3.922
257.57	3.943
258.14	3.965
258.71	3.986
259.28	4.003
259.86	4.025
260.43	4.044
261.02	4.059
261.6	4.076
262.18	4.091
262.77	4.104
263.37	4.118
263.96	4.129
264.56	4.138
265.16	4.144
265.76	4.15
266.36	4.159
266.97	4.163
267.58	4.172
268.19	4.18
268.81	4.185
269.43	4.193
270.05	4.204
270.68	4.212
271.3	4.223
271.93	4.234
272.57	4.242
273.2	4.249
273.84	4.255
274.49	4.257
275.13	4.253
275.78	4.249
276.43	4.242
277.09	4.238
277.74	4.234
278.41	4.229
279.07	4.225
279.74	4.221
280.41	4.219
281.08	4.217
281.76	4.217
282.44	4.217
283.12	4.219
283.81	4.219
284.5	4.221
285.19	4.221
285.89	4.223
286.59	4.227
287.29	4.229
288	4.232
288.71	4.236
289.42	4.242
290.14	4.247
290.86	4.249
291.59	4.251
292.32	4.249
293.05	4.249
293.79	4.244
294.52	4.236
295.27	4.229
296.02	4.217
296.77	4.204
297.52	4.187
298.28	4.17
299.04	4.155
299.81	4.142
300.58	4.131
301.35	4.125
302.13	4.116
302.91	4.099
303.7	4.078
304.49	4.05
305.28	4.025
306.08	4.003
306.89	3.993
307.69	3.975
308.5	3.943
309.32	3.89
310.14	3.777
310.96	3.649
311.79	3.521
312.63	3.395
313.46	3.273
313.93	3.208
314.41	3.139
315.18	3.032
315.66	2.966
316.16	2.892
316.79	2.806
317.36	2.725
317.83	2.656
318.28	2.592
318.8	2.524
319.24	2.464
319.67	2.392
320.11	2.332
320.55	2.259
320.99	2.178
321.43	2.097
321.87	2.035
322.31	1.965
322.76	1.903
323.2	1.837
323.65	1.766
324.1	1.685
324.55	1.61
325	1.553
325.45	1.495
325.91	1.397
326.36	1.333
326.82	1.288
