Uv/Vis Spectrum: 9-Phenanthrol
Formula: C14H10O
CAS: 484-17-3
Melting point: 158
Instrument: n.i.g.
Origin: INSTITUTE OF ENERGY PROBLEMS OF CHEMICAL PHYSICS, RAS
Wavelength (nm)	Logarithm epsilon
260	4.64
261	4.62
262	4.58
263	4.6
264	4.54
265	4.56
266	4.51
267	4.48
268	4.45
269	4.42
270	4.39
271	4.35
272	4.35
273	4.35
274	4.37
275	4.38
276	4.38
277	4.34
278	4.27
279	4.25
280	4.23
281	4.21
282	4.18
283	4.16
284	4.13
285	4.11
286	4.09
287	4.1
288	4.09
289	4.09
290	4.09
291	4.1
292	4.09
293	4.11
294	4.13
295	4.12
296	4.14
297	4.13
298	4.15
299	4.14
300	4.13
301	4.1
302	4.12
303	4.08
304	4.05
305	4.01
306	3.97
307	4
308	3.95
309	3.88
310	3.91
311	3.87
312	3.79
313	3.73
314	3.71
315	3.7
316	3.63
317	3.59
318	3.58
319	3.49
320	3.45
321	3.41
322	3.37
323	3.31
324	3.26
325	3.3
326	3.24
327	3.19
328	3.21
329	3.17
330	3.18
331	3.17
332	3.16
333	3.18
334	3.22
335	3.25
336	3.27
337	3.29
338	3.27
339	3.3
340	3.3
341	3.27
342	3.24
343	3.19
344	3.15
345	3.11
346	3.08
347	3.07
348	3.07
349	3.07
350	3.12
351	3.19
352	3.26
353	3.27
354	3.35
355	3.36
356	3.37
357	3.31
358	3.22
359	3.1
360	3
361	2.92
362	2.81
363	2.67
364	2.58
365	2.49
366	2.38
367	2.24
368	2.17
369	2.14
370	2.16
371	2.12
372	2.13
373	2.1
374	2.11
375	2.11
376	2.1
377	2.13
378	2.14
379	2.16
380	2.16
381	2.14
382	2.02
383	1.99
384	1.88
385	1.81
386	1.72
387	1.66
388	1.56
389	1.54
