Uv/Vis Spectrum: 2,9-Dimethyl-1,10-phenanthroline
Formula: C14H12N2
CAS: 484-11-7
Melting point: 161-163
Instrument: Unicam SP 800
Origin: INSTITUTE OF ENERGY PROBLEMS OF CHEMICAL PHYSICS, RAS
Wavelength (nm)	Logarithm epsilon
203.38	4.13
205.02	4.126
205.89	4.123
206.75	4.123
207.6	4.123
208.44	4.127
209.28	4.137
210.13	4.144
210.97	4.154
211.81	4.161
212.66	4.171
213.5	4.185
214.35	4.202
215.19	4.219
216.03	4.236
216.89	4.258
217.72	4.281
218.57	4.301
219.41	4.332
220.25	4.363
221.1	4.401
221.94	4.445
222.79	4.483
223.63	4.527
224.47	4.558
225.32	4.592
226.16	4.613
227	4.634
227.85	4.647
228.69	4.661
229.54	4.675
230.38	4.678
231.22	4.685
232.07	4.678
232.91	4.664
233.76	4.64
234.6	4.592
235.44	4.527
236.29	4.431
237.13	4.332
237.98	4.212
238.82	4.123
239.66	4.034
240.51	3.969
241.35	3.938
242.19	3.924
243.04	3.918
243.88	3.918
244.73	3.921
245.57	3.924
246.41	3.935
247.26	3.952
248.1	3.969
248.95	3.986
249.79	4.007
250.63	4.031
251.48	4.068
252.32	4.103
253.17	4.133
254.01	4.164
254.85	4.195
255.7	4.219
256.54	4.246
257.39	4.264
258.23	4.291
259.07	4.312
259.92	4.332
260.76	4.356
261.6	4.373
262.45	4.39
263.29	4.407
264.14	4.425
264.98	4.438
265.82	4.449
266.67	4.455
267.51	4.466
268.36	4.469
269.2	4.473
270.04	4.473
270.89	4.473
271.73	4.469
272.58	4.459
273.42	4.452
274.26	4.438
275.11	4.418
275.95	4.394
276.79	4.38
277.64	4.363
278.48	4.346
279.33	4.329
280.17	4.315
281.01	4.298
281.86	4.288
282.7	4.274
283.55	4.253
284.39	4.229
285.23	4.212
286.08	4.195
286.92	4.178
287.77	4.157
288.61	4.137
289.45	4.109
290.3	4.082
291.14	4.058
291.98	4.031
292.83	4.007
293.67	3.979
294.52	3.945
295.36	3.914
296.2	3.88
297.05	3.835
297.89	3.798
298.74	3.743
299.58	3.688
300.42	3.633
301.27	3.572
302.11	3.507
302.96	3.452
303.8	3.4
304.56	3.362
305.28	3.321
306.13	3.278
307.17	3.233
308.02	3.191
308.86	3.14
309.71	3.102
310.55	3.072
311.39	3.058
312.24	3.058
313.08	3.061
313.93	3.068
314.77	3.058
315.61	3.044
316.46	3.024
317.3	2.993
318.15	2.962
318.99	2.928
319.83	2.9
320.68	2.873
321.52	2.842
322.37	2.822
323.21	2.791
324.05	2.777
324.9	2.777
325.74	2.798
326.58	2.828
327.43	2.859
328.27	2.876
329.12	2.876
329.96	2.859
330.8	2.808
331.65	2.739
332.49	2.681
333.34	2.616
334.18	2.565
335.02	2.513
335.87	2.462
336.71	2.411
337.56	2.363
338.4	2.318
339.24	2.267
340.09	2.222
340.93	2.184
341.77	2.143
342.62	2.095
343.46	2.061
344.31	2.02
345.15	1.972
345.99	1.931
346.84	1.88
347.68	1.818
348.6	1.744
349.51	1.671
350.3	1.598
351.09	1.53
351.74	1.478
352.58	1.424
353.42	1.369
354.26	1.304
355.11	1.249
355.95	1.198
356.8	1.147
357.64	1.088
358.48	1.044
359.33	0.989
360.17	0.934
361.02	0.883
361.86	0.832
362.7	0.766
363.55	0.729
364.39	0.667
365.24	0.616
366.08	0.568
366.92	0.527
