Uv/Vis Spectrum: Ninhydrin
Formula: C9H6O4
CAS: 485-47-2
Melting point: 241-3 dec
Instrument: Beckman DU
Origin: INSTITUTE OF ENERGY PROBLEMS OF CHEMICAL PHYSICS, RAS
Wavelength (nm)	Logarithm epsilon
210.02	3.811
212.21	3.848
213.78	3.891
215.03	3.941
215.95	3.994
216.91	4.058
217.84	4.133
218.64	4.183
219.72	4.238
220.97	4.288
222.23	4.337
223.17	4.393
224.1	4.442
225.36	4.492
227.09	4.544
229.43	4.591
230.65	4.605
232.24	4.61
232.97	4.603
234.1	4.567
235.37	4.511
236.31	4.455
237.25	4.399
238.19	4.343
239.44	4.288
240.38	4.232
241.32	4.182
242.88	4.12
244.76	4.077
247.27	4.046
250.08	4.04
252.9	4.052
255.73	4.05
258.53	4.027
260.41	3.99
262.29	3.947
263.85	3.903
265.42	3.854
266.67	3.804
267.92	3.742
268.55	3.687
269.49	3.631
270.43	3.575
271.68	3.526
271.99	3.47
273.56	3.414
274.49	3.358
275.43	3.309
276.37	3.253
277.94	3.203
278.88	3.154
280.75	3.111
282.32	3.067
284.2	3.024
286.7	2.999
289.2	2.974
291.76	2.967
294.21	2.974
297.03	2.974
299.22	2.943
300.76	2.9
302.66	2.857
304.5	2.833
307.36	2.813
309.86	2.788
311.12	2.763
312.06	2.712
312.69	2.662
313.5	2.605
314.87	2.516
315.56	2.468
316.37	2.408
317.31	2.344
318	2.293
318.62	2.237
319.25	2.181
319.88	2.126
320.82	2.07
321.44	2.014
322.69	1.964
324.26	1.915
326.14	1.872
328.33	1.841
330.83	1.822
333.65	1.822
336.46	1.816
339.28	1.81
342.72	1.791
345.23	1.772
348.67	1.754
351.8	1.735
354.3	1.704
357.12	1.673
359.31	1.642
362.44	1.605
364.95	1.574
367.45	1.549
369.62	1.526
372.46	1.494
374.65	1.463
377.15	1.432
379.34	1.395
381.85	1.364
384.04	1.326
386.23	1.289
388.11	1.252
390.61	1.209
392.49	1.165
394.37	1.122
396.24	1.085
