Uv/Vis Spectrum: Cytisine
Formula: C11H14N2O
CAS: 485-35-8
Melting point: 270
Instrument: Unicam Spectrophotometer
Origin: INSTITUTE OF ENERGY PROBLEMS OF CHEMICAL PHYSICS, RAS
Wavelength (nm)	Logarithm epsilon
226.72	3.681
226.94	3.69
227.15	3.698
227.58	3.711
227.8	3.72
228.01	3.728
228.23	3.732
228.66	3.751
228.88	3.754
229.1	3.762
229.32	3.768
229.54	3.773
229.97	3.79
230.19	3.792
230.41	3.796
230.64	3.802
230.86	3.809
231.08	3.813
231.52	3.826
231.75	3.834
231.97	3.836
232.19	3.845
232.42	3.853
233.09	3.873
233.32	3.877
233.55	3.885
234.11	3.904
234.34	3.907
234.57	3.909
234.8	3.915
235.03	3.917
235.26	3.919
235.49	3.921
235.72	3.921
236.3	3.919
236.53	3.917
236.76	3.915
237	3.909
237.23	3.907
237.46	3.898
237.7	3.9
237.93	3.89
238.17	3.885
238.4	3.877
238.64	3.868
238.88	3.864
239.23	3.845
239.47	3.826
239.71	3.802
239.95	3.775
240.19	3.751
240.43	3.732
240.67	3.703
240.91	3.681
241.15	3.666
241.39	3.641
241.76	3.607
242	3.592
242.25	3.556
242.49	3.545
242.73	3.511
242.98	3.488
243.22	3.462
243.47	3.456
243.72	3.422
243.96	3.399
244.21	3.373
244.46	3.36
244.71	3.335
244.96	3.318
245.21	3.288
245.46	3.256
245.71	3.25
245.96	3.233
246.21	3.21
246.46	3.186
246.72	3.161
246.97	3.135
247.35	3.093
247.6	3.076
247.86	3.044
248.11	3.031
248.37	2.999
248.63	2.974
248.88	2.955
249.14	2.95
249.4	2.925
249.66	2.912
249.92	2.902
250.31	2.882
250.7	2.87
250.96	2.859
251.22	2.857
251.62	2.84
251.88	2.831
252.14	2.829
252.41	2.827
252.67	2.823
252.94	2.821
253.74	2.817
254.01	2.814
254.28	2.812
254.55	2.812
254.82	2.812
255.09	2.812
255.36	2.812
255.63	2.812
255.9	2.812
256.72	2.819
256.99	2.819
257.27	2.821
257.54	2.821
257.82	2.821
258.23	2.827
258.51	2.829
259.21	2.831
259.49	2.836
259.77	2.84
260.05	2.84
260.33	2.842
260.61	2.848
260.89	2.851
261.6	2.863
261.89	2.863
262.17	2.872
262.46	2.874
262.74	2.878
263.03	2.882
263.61	2.895
263.9	2.895
264.19	2.904
264.48	2.908
264.77	2.914
265.06	2.919
265.65	2.933
265.94	2.936
266.23	2.944
266.53	2.948
266.82	2.955
267.27	2.974
267.57	2.974
267.86	2.982
268.16	2.987
268.46	2.995
269.06	3.014
269.36	3.018
269.66	3.027
269.97	3.035
270.42	3.057
270.73	3.059
271.03	3.067
271.34	3.078
271.64	3.084
271.95	3.099
272.26	3.103
272.57	3.118
272.88	3.127
273.19	3.146
273.5	3.146
273.81	3.152
274.12	3.163
274.43	3.171
274.9	3.188
275.22	3.197
275.53	3.208
275.85	3.218
276.16	3.231
276.48	3.239
276.8	3.246
277.12	3.271
277.44	3.275
277.76	3.286
278.08	3.295
278.4	3.316
278.72	3.316
279.05	3.331
279.37	3.343
279.86	3.356
280.18	3.367
281	3.397
281.33	3.407
281.66	3.418
281.99	3.428
282.32	3.439
282.65	3.448
282.98	3.458
283.32	3.471
283.82	3.488
284.15	3.499
284.49	3.507
284.83	3.516
285.33	3.539
285.67	3.541
286.01	3.55
286.35	3.564
286.69	3.573
287.03	3.577
287.38	3.586
287.72	3.594
288.07	3.603
288.41	3.613
289.1	3.635
289.45	3.639
289.8	3.645
290.15	3.656
290.5	3.664
290.85	3.679
291.2	3.686
291.56	3.694
291.91	3.698
292.26	3.707
292.98	3.728
293.33	3.734
293.69	3.741
294.05	3.751
294.77	3.764
295.13	3.773
295.49	3.781
295.86	3.79
296.4	3.805
296.77	3.805
297.14	3.813
297.5	3.822
297.87	3.826
298.24	3.834
298.98	3.847
299.35	3.856
299.73	3.862
300.1	3.866
300.48	3.873
301.23	3.89
301.61	3.892
301.98	3.898
302.36	3.904
302.74	3.909
303.13	3.915
303.51	3.926
303.89	3.928
304.47	3.938
304.85	3.938
305.24	3.945
305.63	3.947
306.02	3.953
306.41	3.958
306.8	3.96
307.19	3.966
308.37	3.97
308.77	3.97
309.16	3.975
309.56	3.977
309.96	3.977
310.36	3.977
310.76	3.977
311.16	3.975
311.56	3.972
312.58	3.968
312.98	3.962
313.39	3.96
313.8	3.953
314.21	3.949
314.62	3.947
315.03	3.941
316.07	3.928
316.48	3.921
316.9	3.917
317.32	3.911
317.74	3.907
318.16	3.9
319.42	3.881
319.85	3.877
320.27	3.868
320.7	3.858
321.13	3.853
321.99	3.83
322.42	3.819
322.85	3.807
323.28	3.805
323.94	3.783
324.37	3.771
324.81	3.758
325.25	3.743
325.69	3.73
326.13	3.713
326.58	3.705
327.02	3.681
327.46	3.675
327.91	3.658
328.36	3.639
328.81	3.618
329.26	3.59
329.71	3.567
330.16	3.524
330.61	3.473
331.07	3.462
331.53	3.411
331.98	3.365
332.44	3.32
332.9	3.269
333.36	3.246
333.82	3.199
334.29	3.15
334.75	3.14
335.22	3.082
335.69	3.044
336.16	3.014
336.63	2.963
337.1	2.914
337.57	2.863
338.05	2.834
338.76	2.77
339.24	2.723
339.72	2.676
340.2	2.627
340.68	2.608
341.16	2.581
