Uv/Vis Spectrum: Cinchonidine
Formula: C19H22N2O
CAS: 485-71-2
Melting point: 210.5
Boiling point: sub
Instrument: n.i.g.
Origin: INSTITUTE OF ENERGY PROBLEMS OF CHEMICAL PHYSICS, RAS
Wavelength (nm)	Logarithm epsilon
248.11	3.231
248.3	3.233
248.48	3.236
248.67	3.238
248.86	3.24
249.05	3.243
249.24	3.247
249.43	3.25
250.37	3.274
251.5	3.299
252.63	3.326
253.76	3.355
254.89	3.381
256.03	3.407
257.16	3.43
258.29	3.455
259.42	3.483
260.55	3.501
261.68	3.524
262.81	3.545
263.94	3.564
265.08	3.583
266.21	3.602
267.34	3.613
268.47	3.633
269.6	3.648
270.73	3.662
271.86	3.674
272.99	3.687
274.13	3.699
275.26	3.71
276.39	3.717
277.52	3.723
278.65	3.726
279.78	3.727
280.91	3.729
282.04	3.732
282.8	3.735
282.99	3.735
283.18	3.735
283.36	3.735
283.55	3.735
283.74	3.735
283.93	3.735
284.12	3.735
284.31	3.735
284.5	3.735
284.68	3.735
285.06	3.735
285.44	3.735
285.82	3.734
286.19	3.734
286.57	3.733
286.95	3.733
287.32	3.732
287.7	3.731
288.08	3.731
288.45	3.73
288.83	3.729
289.21	3.727
289.59	3.726
289.96	3.723
290.34	3.72
290.72	3.717
291.09	3.713
291.47	3.709
291.85	3.703
292.23	3.698
292.6	3.694
292.98	3.688
293.36	3.684
293.73	3.678
294.11	3.672
294.49	3.663
294.87	3.659
295.24	3.654
295.62	3.648
296	3.642
296.37	3.638
296.75	3.628
297.13	3.621
297.5	3.611
297.88	3.605
298.26	3.603
298.64	3.599
299.01	3.598
299.39	3.598
299.77	3.596
300.14	3.598
300.52	3.599
300.9	3.599
301.28	3.599
301.65	3.599
302.03	3.599
302.41	3.594
302.78	3.583
303.16	3.577
303.54	3.562
303.91	3.554
304.29	3.549
304.67	3.541
305.05	3.533
305.42	3.521
305.8	3.513
306.18	3.5
306.55	3.486
306.93	3.479
307.31	3.464
307.69	3.455
308.06	3.445
308.44	3.434
308.82	3.423
309.19	3.404
309.57	3.384
309.95	3.371
310.33	3.359
310.7	3.348
311.08	3.348
311.46	3.35
311.83	3.355
312.21	3.371
312.59	3.384
312.96	3.398
313.34	3.415
313.72	3.433
314.1	3.442
314.47	3.449
314.85	3.45
315.23	3.452
315.6	3.448
315.98	3.439
316.36	3.402
316.74	3.373
317.11	3.345
317.49	3.303
317.87	3.269
318.24	3.236
318.62	3.207
319	3.154
319.38	3.125
319.75	3.08
320.13	3.042
