Uv/Vis Spectrum: 1-Butanamine, N-butylidene-
Formula: C8H17N
CAS: 4853-56-9
Melting point: 198
Instrument: Beckman DU
Origin: INSTITUTE OF ENERGY PROBLEMS OF CHEMICAL PHYSICS, RAS
Wavelength (nm)	Logarithm epsilon
221.28	2.114
222.55	2.132
223.83	2.154
225.1	2.173
226.56	2.191
228.01	2.202
229.47	2.217
231.1	2.224
232.74	2.228
234.38	2.22
236.02	2.213
237.47	2.195
238.56	2.173
239.65	2.147
240.56	2.121
241.47	2.096
242.38	2.07
243.29	2.045
244.2	2.019
244.93	1.99
245.66	1.96
246.57	1.935
247.29	1.906
247.84	1.876
248.75	1.847
249.29	1.818
249.84	1.788
250.57	1.759
251.11	1.73
251.66	1.701
252.2	1.671
252.93	1.642
253.48	1.613
254.2	1.583
254.75	1.55
255.3	1.521
255.84	1.492
256.39	1.463
257.12	1.433
257.66	1.404
258.21	1.375
258.75	1.345
259.48	1.308
259.84	1.283
260.57	1.254
261.12	1.225
261.66	1.192
262.03	1.159
262.57	1.129
263.12	1.1
263.66	1.067
264.21	1.038
264.75	1.005
265.3	0.976
265.66	0.943
266.21	0.914
266.76	0.881
267.12	0.848
267.66	0.818
268.03	0.785
268.57	0.756
269.12	0.723
269.48	0.69
270.03	0.661
270.39	0.628
270.94	0.595
271.3	0.562
271.67	0.529
272.21	0.5
272.76	0.457
272.94	0.438
273.3	0.405
273.85	0.375
274.21	0.342
274.76	0.313
