Uv/Vis Spectrum: 2,3-Dichloropyrazine
Formula: C4H2Cl2N2
CAS: 4858-85-9
Boiling point: 105-107/ 50 mm
Instrument: Beckman DU
Origin: INSTITUTE OF ENERGY PROBLEMS OF CHEMICAL PHYSICS, RAS
Wavelength (nm)	Logarithm epsilon
214.49	3.84
214.72	3.845
214.96	3.849
215.19	3.849
215.43	3.854
216.14	3.863
216.38	3.854
216.62	3.858
217.22	3.849
217.46	3.849
218.31	3.826
218.55	3.822
218.79	3.812
219.04	3.808
219.28	3.799
219.53	3.79
219.77	3.785
220.02	3.78
220.27	3.776
220.76	3.744
221.01	3.735
221.26	3.739
221.51	3.712
221.76	3.694
222.01	3.698
222.39	3.68
222.64	3.662
222.9	3.643
223.15	3.616
223.41	3.593
223.66	3.588
223.92	3.588
224.17	3.543
224.43	3.497
224.69	3.433
224.94	3.392
225.2	3.373
225.46	3.328
225.72	3.291
225.98	3.236
226.24	3.195
226.5	3.177
226.76	3.14
227.03	3.099
227.29	3.044
227.55	3.012
227.82	2.976
228.08	2.966
228.35	2.916
228.61	2.884
228.88	2.843
229.15	2.811
229.42	2.779
229.69	2.756
229.96	2.72
230.23	2.683
230.5	2.678
230.77	2.623
231.04	2.605
231.31	2.573
231.58	2.564
231.86	2.555
232.13	2.555
232.41	2.532
232.68	2.523
232.96	2.523
233.52	2.495
233.79	2.491
234.07	2.454
234.35	2.454
234.63	2.445
234.91	2.441
235.2	2.436
235.48	2.441
235.76	2.441
236.05	2.441
236.33	2.441
236.61	2.441
236.9	2.441
237.19	2.441
237.47	2.441
237.76	2.445
238.05	2.45
238.34	2.45
238.63	2.454
238.92	2.454
239.21	2.459
239.51	2.463
239.8	2.463
240.09	2.468
240.39	2.473
240.68	2.477
240.98	2.491
241.27	2.5
241.57	2.509
241.87	2.514
242.17	2.518
242.47	2.537
242.77	2.527
243.07	2.532
243.37	2.541
243.67	2.55
243.98	2.555
244.28	2.564
244.58	2.569
244.89	2.573
245.2	2.578
245.5	2.587
245.81	2.601
246.12	2.633
246.43	2.623
246.74	2.633
247.05	2.637
247.52	2.651
247.83	2.655
248.46	2.678
248.77	2.674
249.09	2.678
249.41	2.683
249.72	2.692
250.04	2.697
250.36	2.706
250.68	2.715
251	2.756
251.32	2.756
251.65	2.756
251.97	2.765
252.29	2.774
252.62	2.784
252.94	2.825
253.27	2.82
253.6	2.82
253.93	2.834
254.26	2.838
254.59	2.852
254.92	2.866
255.25	2.88
255.58	2.893
255.92	2.912
256.25	2.939
256.59	2.934
256.92	2.948
257.26	2.962
257.6	2.976
257.94	2.989
258.28	3.008
258.62	3.021
258.96	3.04
259.64	3.062
260.16	3.085
260.51	3.09
260.85	3.127
261.2	3.117
261.55	3.131
261.9	3.145
262.25	3.159
262.6	3.172
262.95	3.186
263.3	3.218
263.66	3.213
264.01	3.227
264.37	3.241
264.73	3.255
265.08	3.277
265.44	3.277
265.8	3.296
266.16	3.305
266.52	3.319
266.89	3.332
267.25	3.346
267.62	3.36
267.98	3.373
268.35	3.415
268.72	3.405
269.09	3.415
269.45	3.438
269.83	3.438
270.2	3.451
270.57	3.465
270.94	3.479
271.32	3.492
271.69	3.506
272.26	3.52
272.64	3.529
273.21	3.543
273.59	3.547
273.97	3.556
274.36	3.566
274.74	3.575
275.13	3.584
275.51	3.593
275.9	3.607
276.29	3.62
276.68	3.634
277.66	3.652
278.05	3.657
278.45	3.662
278.84	3.666
279.24	3.671
279.64	3.675
280.04	3.675
280.44	3.675
280.84	3.675
281.24	3.675
281.65	3.675
282.05	3.675
283.07	3.666
283.48	3.666
284.51	3.652
284.92	3.643
285.33	3.648
286.38	3.63
286.8	3.625
287.22	3.62
287.64	3.611
288.06	3.607
288.48	3.598
288.91	3.588
289.33	3.579
289.76	3.57
290.19	3.566
290.62	3.566
291.05	3.566
291.48	3.561
291.92	3.556
292.35	3.547
292.79	3.538
293.23	3.534
293.67	3.52
294.11	3.515
294.55	3.511
294.99	3.506
295.44	3.497
295.88	3.497
296.33	3.492
296.78	3.492
297.23	3.492
299.04	3.46
299.5	3.465
300.88	3.428
301.34	3.428
302.5	3.41
302.97	3.401
303.44	3.396
303.91	3.387
304.38	3.383
304.85	3.378
305.33	3.364
305.8	3.36
306.28	3.355
307	3.314
307.48	3.277
307.97	3.273
308.45	3.204
308.94	3.181
309.42	3.122
309.91	3.053
310.4	3.003
310.9	2.98
311.39	2.898
311.88	2.889
312.38	2.779
312.88	2.774
313.38	2.692
313.88	2.591
314.38	2.527
314.89	2.482
315.4	2.386
315.9	2.326
316.41	2.285
316.92	2.216
317.44	2.12
317.95	2.079
318.47	2.02
318.99	1.96
319.51	1.864
320.03	1.809
320.55	1.736
321.08	1.654
321.6	1.558
324.8	1.21
