Uv/Vis Spectrum: 9-Fluorenone
Formula: C13H8O
CAS: 486-25-9
Melting point: 84
Boiling point: 341.5
Instrument: n.i.g.
Origin: INSTITUTE OF ENERGY PROBLEMS OF CHEMICAL PHYSICS, RAS
Wavelength (nm)	Logarithm epsilon
223.983	4.50249
225.183	4.51618
226.294	4.52846
227.357	4.53864
228.413	4.54605
229.501	4.55
230.665	4.5498
231.943	4.54478
233.377	4.53426
235.008	4.51755
235.008	4.51755
235.94	4.50182
236.879	4.48466
237.829	4.46681
238.795	4.449
239.778	4.43197
240.784	4.41644
241.814	4.40317
242.874	4.39288
243.966	4.38631
245.093	4.38419
246.26	4.38726
247.47	4.39626
248.726	4.41192
248.726	4.41192
250.2	4.41471
251.68	4.41751
253.174	4.4203
253.174	4.4203
254.548	4.43783
255.913	4.45565
257.317	4.47183
258.803	4.48444
260.417	4.49155
260.417	4.49155
261.513	4.46467
262.608	4.43779
263.704	4.41091
264.8	4.38403
264.8	4.38403
264.811	4.38164
264.849	4.37843
264.927	4.37358
265.058	4.36627
265.254	4.35564
265.527	4.34089
265.89	4.32117
266.356	4.29566
266.937	4.26351
267.645	4.22391
268.493	4.17602
269.494	4.11901
270.66	4.05204
272.003	3.9743
272.003	3.9743
273.227	3.95456
274.497	3.94266
275.799	3.93818
277.12	3.9407
278.446	3.94981
279.762	3.96508
281.056	3.9861
281.056	3.9861
282.463	3.99625
283.975	4.00573
285.568	4.01448
287.216	4.02238
288.896	4.02936
290.581	4.03534
292.248	4.04021
293.873	4.04391
295.429	4.04634
295.429	4.04634
296.102	4.05333
296.782	4.06032
297.476	4.06731
297.476	4.06731
297.987	4.06703
299.193	4.06657
300.877	4.06656
302.823	4.06762
304.816	4.07038
306.64	4.07548
308.079	4.08353
308.916	4.09518
308.916	4.09518
310.449	4.10572
311.975	4.11367
313.496	4.12015
315.016	4.12632
316.536	4.1333
318.061	4.14224
319.592	4.15428
321.132	4.17055
321.132	4.17055
322.629	4.17362
324.122	4.17619
325.615	4.17818
327.11	4.17948
328.612	4.18001
330.124	4.17968
331.648	4.17841
333.189	4.1761
334.75	4.17267
336.334	4.16803
336.334	4.16803
337.776	4.15504
339.166	4.142
340.505	4.1288
341.799	4.11535
343.049	4.10154
344.26	4.08728
345.434	4.07246
346.575	4.05698
347.685	4.04074
348.77	4.02364
349.831	4.00558
350.872	3.98647
351.896	3.96619
352.907	3.94465
353.908	3.92175
354.902	3.89738
355.893	3.87145
356.884	3.84386
356.884	3.84386
358.604	3.8025
360.05	3.76586
361.24	3.73447
362.196	3.70884
362.934	3.6895
363.476	3.67698
363.476	3.67698
364.154	3.65605
364.93	3.63228
365.774	3.60621
366.652	3.57842
367.535	3.54946
368.389	3.5199
369.183	3.49029
369.885	3.46121
