Uv/Vis Spectrum: .alpha.-Bromophenyl acetic acid
Formula: C8H7BrO2
CAS: 4870-65-9
Boiling point: 78
Instrument: Spektromom 201
Origin: INSTITUTE OF ENERGY PROBLEMS OF CHEMICAL PHYSICS, RAS
Wavelength (nm)	Logarithm epsilon
204.39	4.285
205.23	4.261
206.08	4.234
206.92	4.207
207.43	4.18
208.27	4.153
208.95	4.126
209.62	4.099
210.3	4.071
210.8	4.044
211.48	4.017
212.15	3.99
212.49	3.96
213.17	3.933
213.51	3.902
214.01	3.875
214.52	3.848
215.36	3.824
216.21	3.8
217.22	3.78
218.74	3.77
220.26	3.763
221.78	3.76
223.3	3.763
224.82	3.77
226.34	3.77
227.85	3.77
229.37	3.77
230.89	3.77
232.41	3.766
233.93	3.756
235.45	3.753
236.8	3.739
238.15	3.729
239.5	3.716
240.85	3.702
242.2	3.685
243.55	3.668
244.91	3.651
245.92	3.631
246.93	3.611
248.11	3.59
249.13	3.57
250.14	3.546
250.98	3.522
251.83	3.499
252.84	3.475
253.68	3.451
254.53	3.424
255.37	3.4
256.22	3.373
257.23	3.353
258.07	3.329
259.09	3.306
260.1	3.285
261.11	3.265
262.12	3.241
263.14	3.221
264.32	3.201
265.67	3.184
266.68	3.163
267.7	3.143
268.71	3.119
269.72	3.099
270.57	3.075
271.41	3.051
272.25	3.028
273.1	3.001
273.94	2.973
274.79	2.95
275.46	2.923
276.31	2.899
276.98	2.872
277.66	2.845
278.16	2.818
278.84	2.79
279.68	2.763
280.19	2.736
280.86	2.709
281.54	2.682
282.05	2.655
282.89	2.631
283.23	2.601
283.73	2.574
284.24	2.546
284.92	2.519
285.42	2.492
285.93	2.465
286.43	2.438
286.94	2.411
287.28	2.38
287.95	2.353
288.46	2.323
288.97	2.292
289.47	2.265
289.98	2.238
290.49	2.208
290.99	2.181
291.33	2.15
291.84	2.12
292.34	2.092
292.85	2.065
293.36	2.035
293.86	2.004
294.37	1.977
294.88	1.947
295.21	1.916
295.72	1.889
296.23	1.862
296.9	1.835
297.41	1.804
297.91	1.777
298.59	1.75
299.1	1.723
299.6	1.693
300.28	1.665
300.78	1.638
301.29	1.611
301.97	1.584
302.64	1.557
303.32	1.53
303.82	1.503
304.33	1.476
305	1.449
305.68	1.421
306.19	1.394
306.86	1.367
307.71	1.34
308.38	1.313
309.06	1.286
