Uv/Vis Spectrum: 1,1'-Azonaphthalene
Formula: C20H14N2
CAS: 487-10-5
Melting point: 190
Boiling point: sub.
Instrument: n.i.g.
Origin: INSTITUTE OF ENERGY PROBLEMS OF CHEMICAL PHYSICS, RAS
Wavelength (nm)	Logarithm epsilon
166.524	4.90623
167.249	4.91118
167.972	4.91625
169.243	4.92122
171.611	4.92585
175.626	4.92992
175.626	4.92992
176.606	4.92988
177.604	4.92983
178.639	4.92976
178.639	4.92976
179.078	4.92921
179.553	4.92863
180.047	4.92804
180.047	4.92804
180.579	4.9238
181.101	4.91952
181.615	4.91519
182.122	4.91081
182.625	4.90638
183.127	4.9019
183.63	4.89738
184.135	4.8928
184.645	4.88818
185.163	4.8835
185.69	4.87876
186.229	4.87398
186.782	4.86913
187.352	4.86423
187.94	4.85928
188.549	4.85426
189.181	4.84918
189.838	4.84404
190.523	4.83884
191.237	4.83357
191.984	4.82824
192.765	4.82284
193.582	4.81737
193.582	4.81737
196.022	4.81097
198.698	4.80437
201.27	4.79752
203.394	4.79036
203.394	4.79036
203.95	4.78484
204.508	4.77925
205.069	4.77358
205.632	4.76784
206.198	4.76202
206.766	4.75612
207.336	4.75013
207.909	4.74406
208.484	4.73791
209.061	4.73166
209.641	4.72532
210.222	4.71889
210.806	4.71236
211.392	4.70572
211.979	4.69899
212.569	4.69214
213.16	4.68519
213.754	4.67812
214.349	4.67093
214.946	4.66362
215.544	4.65619
216.145	4.64862
216.747	4.64092
217.35	4.63308
217.955	4.6251
218.562	4.61696
219.17	4.60867
219.779	4.60021
220.39	4.59159
221.002	4.58279
221.615	4.57381
222.23	4.56464
222.845	4.55527
223.462	4.5457
224.08	4.53591
224.699	4.52589
225.319	4.51564
225.94	4.50513
226.562	4.49437
227.185	4.48334
227.808	4.47201
228.432	4.46039
229.057	4.44844
229.683	4.43616
230.309	4.42352
230.936	4.4105
231.563	4.39708
232.191	4.38323
232.82	4.36893
233.448	4.35414
234.077	4.33884
234.707	4.32297
235.336	4.3065
235.966	4.28939
236.596	4.27158
237.226	4.25301
237.857	4.23361
238.487	4.21331
238.487	4.21331
239.698	4.19456
242.106	4.18084
248.429	4.17656
248.429	4.17656
252.675	4.19746
256.703	4.22087
261.081	4.24242
266.375	4.25853
273.151	4.26602
273.151	4.26602
275.137	4.25928
276.377	4.25376
277.936	4.24466
277.936	4.24466
282.452	4.22862
286.771	4.21103
289.886	4.19011
289.886	4.19011
290.221	4.1643
290.556	4.13685
290.891	4.10752
291.225	4.07606
291.56	4.04213
291.895	4.00532
292.23	3.96508
292.565	3.92072
292.9	3.8713
293.235	3.81553
293.235	3.81553
294.822	3.75794
296.718	3.69294
299.296	3.62232
302.934	3.54989
308.006	3.48285
314.887	3.43283
323.955	3.41416
323.955	3.41416
331.576	3.49354
337.933	3.57746
343.358	3.65655
348.183	3.72657
352.739	3.78583
352.739	3.78583
355.878	3.83537
358.523	3.8815
360.788	3.92431
362.791	3.96392
364.644	4.00048
366.464	4.03412
368.367	4.06499
370.467	4.0932
372.879	4.11887
375.719	4.14208
379.103	4.1629
383.144	4.1814
383.144	4.1814
385.029	4.18565
386.949	4.18987
388.887	4.19405
388.887	4.19405
392.593	4.20783
396.367	4.21592
402.018	4.21201
402.018	4.21201
405.576	4.19914
410.262	4.18295
414.259	4.16725
414.259	4.16725
414.594	4.16242
414.904	4.15732
415.226	4.15084
415.596	4.14179
416.048	4.12885
416.62	4.11048
417.346	4.08468
418.262	4.04871
419.404	3.99837
420.807	3.92658
422.508	3.81934
424.542	3.64182
424.542	3.64182
427.235	3.53897
429.567	3.40294
431.147	3.29957
431.147	3.29957
437.733	3.2271
448.506	3.07046
458.808	2.80326
