Uv/Vis Spectrum: Benzene, 1,2,3,4-tetramethyl-
Formula: C10H14
CAS: 488-23-3
Melting point: - 6.2
Boiling point: 205
Instrument: unknown
Origin: INSTITUTE OF ENERGY PROBLEMS OF CHEMICAL PHYSICS, RAS
Wavelength (nm)	Logarithm epsilon
232.57	2.139
232.62	2.113
232.69	2.082
232.74	2.062
232.83	2.043
232.91	2.019
233	2.001
233.08	1.986
233.15	1.974
233.25	1.957
233.33	1.947
233.42	1.934
233.54	1.92
233.67	1.904
233.84	1.885
234.01	1.865
234.18	1.845
234.39	1.826
234.6	1.807
234.85	1.786
235.11	1.765
235.4	1.749
235.7	1.733
236.03	1.715
236.37	1.701
236.75	1.694
237.12	1.69
237.51	1.69
237.9	1.693
238.23	1.701
238.61	1.714
238.99	1.726
239.32	1.736
239.68	1.752
239.96	1.765
240.3	1.777
240.59	1.792
240.93	1.804
241.22	1.818
241.52	1.832
241.86	1.845
242.15	1.858
242.49	1.87
242.78	1.885
243.08	1.897
243.38	1.908
243.71	1.919
244.01	1.93
244.35	1.941
244.64	1.953
244.94	1.965
245.23	1.977
245.53	1.988
245.82	1.998
246.08	2.01
246.37	2.021
246.67	2.031
246.96	2.039
247.22	2.051
247.51	2.061
247.81	2.069
248.06	2.078
248.31	2.088
248.57	2.097
248.86	2.104
249.11	2.113
249.41	2.12
249.66	2.128
249.96	2.136
250.17	2.145
250.46	2.153
250.72	2.162
251.01	2.17
251.31	2.177
251.52	2.185
251.77	2.192
252.07	2.198
252.32	2.205
252.57	2.213
252.83	2.22
253.12	2.226
253.38	2.233
253.63	2.24
253.92	2.245
254.14	2.253
254.43	2.259
254.68	2.266
254.94	2.272
255.19	2.277
255.44	2.284
255.74	2.29
256.03	2.295
256.24	2.303
256.54	2.308
256.79	2.313
257.05	2.32
257.3	2.325
257.55	2.33
257.81	2.336
258.06	2.342
258.35	2.346
258.65	2.351
258.9	2.357
259.2	2.361
259.49	2.365
259.79	2.369
260.04	2.374
260.38	2.378
260.68	2.381
260.97	2.385
261.27	2.389
261.6	2.391
261.94	2.394
262.28	2.397
262.62	2.4
262.95	2.403
263.29	2.405
263.63	2.407
263.97	2.409
264.3	2.412
264.68	2.413
265.06	2.414
265.44	2.415
265.82	2.417
266.2	2.419
266.46	2.424
266.71	2.428
266.96	2.433
267.22	2.438
267.47	2.442
267.76	2.445
268.1	2.447
268.48	2.446
268.9	2.435
268.95	2.434
268.99	2.432
269.03	2.43
269.07	2.429
269.11	2.428
269.16	2.426
269.2	2.425
269.24	2.423
269.28	2.421
269.32	2.42
269.37	2.419
269.41	2.417
269.58	2.411
269.75	2.404
269.92	2.394
270.08	2.389
270.25	2.378
270.42	2.37
270.59	2.363
270.76	2.353
270.93	2.347
271.1	2.341
271.27	2.336
271.43	2.331
271.6	2.327
271.77	2.327
271.94	2.328
272.11	2.33
272.28	2.331
272.45	2.331
272.62	2.332
272.78	2.332
272.95	2.331
273.12	2.329
273.29	2.326
273.46	2.322
273.63	2.318
273.8	2.313
273.97	2.309
274.14	2.303
274.3	2.296
274.47	2.292
274.64	2.284
274.81	2.279
274.98	2.275
275.15	2.273
275.32	2.27
275.49	2.27
275.65	2.273
275.82	2.275
275.99	2.28
276.16	2.284
276.33	2.293
276.5	2.3
276.67	2.304
276.84	2.305
277	2.304
277.17	2.3
277.34	2.293
277.51	2.279
277.68	2.266
277.85	2.244
278.02	2.222
278.19	2.199
278.35	2.175
278.52	2.152
278.69	2.127
278.86	2.102
279.03	2.072
279.2	2.043
279.37	2.015
279.54	1.986
279.7	1.955
279.87	1.921
280.04	1.892
280.42	1.824
280.51	1.798
280.63	1.774
280.8	1.749
280.93	1.719
281.05	1.69
281.22	1.659
281.39	1.626
281.65	1.594
281.86	1.561
282.07	1.524
282.32	1.49
282.57	1.446
282.83	1.405
283.08	1.36
283.38	1.309
283.67	1.262
283.97	1.197
