Uv/Vis Spectrum: Azulene, 1,4-dimethyl-7-(1-methylethyl)-
Formula: C15H18
CAS: 489-84-9
Melting point: 29.7-30.5
Instrument: unknown
Origin: INSTITUTE OF ENERGY PROBLEMS OF CHEMICAL PHYSICS, RAS
Wavelength (nm)	Logarithm epsilon
224.75	4.045
225.04	4.056
225.33	4.056
225.61	4.061
225.9	4.072
226.19	4.077
226.48	4.088
226.77	4.099
227.06	4.11
227.35	4.116
227.64	4.121
227.94	4.132
228.23	4.137
228.52	4.148
228.82	4.154
229.11	4.165
229.41	4.176
229.71	4.187
230.01	4.192
230.31	4.203
230.61	4.214
230.91	4.219
231.21	4.225
231.51	4.236
231.81	4.252
232.12	4.263
232.42	4.274
232.73	4.279
233.03	4.296
233.34	4.301
234.27	4.318
234.58	4.329
234.89	4.334
235.2	4.339
235.82	4.35
236.14	4.356
236.45	4.367
236.77	4.372
237.09	4.378
237.41	4.383
237.72	4.383
238.04	4.383
238.36	4.383
238.68	4.383
239.01	4.383
239.33	4.383
239.65	4.383
239.98	4.378
240.3	4.378
240.63	4.372
240.96	4.367
241.29	4.367
241.61	4.356
241.94	4.345
242.28	4.345
242.61	4.329
242.94	4.318
243.27	4.296
243.61	4.29
243.94	4.285
244.28	4.263
244.62	4.241
244.96	4.236
245.3	4.219
245.64	4.197
245.98	4.187
246.32	4.17
246.66	4.148
247.01	4.143
247.35	4.137
247.7	4.127
248.04	4.116
248.39	4.11
248.74	4.099
249.09	4.083
249.44	4.077
249.79	4.077
250.14	4.061
250.5	4.056
250.85	4.05
251.21	4.039
251.57	4.034
251.92	4.034
252.28	4.028
252.64	4.028
253	4.028
253.36	4.028
253.73	4.028
254.09	4.028
254.46	4.028
254.82	4.028
255.19	4.028
255.56	4.034
255.93	4.034
256.3	4.039
256.67	4.039
257.04	4.045
257.41	4.056
257.79	4.061
258.17	4.066
258.54	4.072
258.92	4.083
259.3	4.088
259.68	4.094
260.06	4.105
260.44	4.116
260.83	4.116
261.21	4.132
261.6	4.143
261.98	4.159
262.37	4.165
262.76	4.17
263.15	4.187
263.54	4.197
263.94	4.214
264.33	4.219
264.72	4.236
265.12	4.247
265.52	4.263
265.92	4.274
266.32	4.318
266.72	4.339
267.12	4.356
267.52	4.361
267.93	4.383
268.33	4.389
268.74	4.399
269.15	4.416
269.56	4.421
269.97	4.438
270.38	4.443
270.79	4.454
271.21	4.476
271.63	4.487
272.04	4.503
272.46	4.52
272.88	4.536
273.3	4.541
273.72	4.558
274.15	4.591
274.57	4.607
275	4.618
275.43	4.623
275.86	4.623
276.29	4.64
276.72	4.645
277.15	4.651
277.58	4.651
278.02	4.651
278.46	4.656
278.9	4.656
279.34	4.656
279.78	4.656
280.22	4.645
280.66	4.64
281.11	4.634
281.56	4.634
282	4.629
282.45	4.629
282.9	4.629
283.36	4.623
283.81	4.623
284.27	4.618
284.72	4.612
285.18	4.601
285.64	4.591
286.1	4.58
286.57	4.569
287.03	4.569
287.5	4.536
287.96	4.525
288.43	4.476
288.9	4.46
289.37	4.421
289.85	4.378
290.32	4.339
290.8	4.329
291.28	4.296
291.76	4.236
292.24	4.187
292.72	4.148
293.21	4.099
293.69	4.066
294.18	4.034
294.67	4.023
295.16	3.99
295.65	3.968
296.15	3.957
296.64	3.952
297.14	3.952
297.64	3.946
298.14	3.946
298.64	3.946
299.15	3.952
299.65	3.963
300.16	3.974
300.67	3.99
301.18	3.995
301.7	3.941
302.21	3.843
302.73	3.755
303.25	3.717
303.77	3.602
304.29	3.553
304.81	3.482
305.34	3.428
305.86	3.417
306.39	3.329
307.46	3.248
307.99	3.226
310.69	3.166
311.24	3.16
311.79	3.16
312.34	3.16
312.89	3.16
313.44	3.16
314	3.171
314.55	3.177
315.11	3.182
315.67	3.188
316.24	3.204
316.8	3.209
317.37	3.226
317.94	3.231
318.51	3.242
319.09	3.253
319.66	3.264
320.24	3.275
320.82	3.28
321.4	3.286
321.99	3.297
322.57	3.313
323.16	3.329
323.75	3.34
324.34	3.346
324.94	3.368
325.54	3.373
326.14	3.39
326.74	3.406
327.34	3.422
327.95	3.433
328.56	3.45
329.17	3.455
329.78	3.46
330.39	3.471
331.01	3.477
331.63	3.482
332.25	3.482
332.88	3.488
333.5	3.488
334.13	3.493
334.77	3.493
335.4	3.499
336.04	3.504
336.67	3.51
337.32	3.515
337.96	3.515
338.6	3.521
339.25	3.526
339.9	3.531
340.56	3.537
341.21	3.542
341.87	3.548
342.53	3.553
343.2	3.564
343.86	3.591
344.53	3.619
345.2	3.646
345.88	3.657
346.55	3.662
347.23	3.668
347.92	3.662
348.6	3.652
349.29	3.624
349.98	3.591
350.67	3.553
351.37	3.548
352.06	3.521
352.77	3.482
354.18	3.411
354.89	3.379
355.6	3.351
356.31	3.329
357.03	3.324
357.75	3.319
358.48	3.319
359.2	3.319
359.93	3.324
360.67	3.329
361.4	3.346
362.14	3.362
362.88	3.384
363.63	3.422
364.38	3.45
365.13	3.499
365.88	3.488
366.64	3.269
367.4	3.215
368.16	3.182
368.93	3.067
369.7	3.002
370.47	2.969
372.03	2.893
372.81	2.794
373.6	2.696
374.39	2.598
375.18	2.303
376.78	1.861
377.58	1.763
378.39	1.615
379.2	1.566
380.01	1.468
380.83	1.37
381.65	1.173
