Uv/Vis Spectrum: 4(3H)-Quinazolinone
Formula: C8H6N2O
CAS: 491-36-1
Melting point: 212
Instrument: Hitachi EPS-3T
Origin: INSTITUTE OF ENERGY PROBLEMS OF CHEMICAL PHYSICS, RAS
Wavelength (nm)	Logarithm epsilon
224.612	3.399
225.112	3.42
225.612	3.434
226.112	3.437
226.612	3.433
227.093	3.427
227.593	3.428
228.093	3.435
228.593	3.452
229.093	3.484
229.101	3.484
229.601	3.51
230.101	3.531
230.601	3.546
231.101	3.554
231.601	3.556
232.101	3.551
232.601	3.541
233.101	3.528
233.601	3.514
234.122	3.501
234.622	3.49
235.122	3.48
235.622	3.47
236.122	3.462
236.622	3.455
237.122	3.45
237.622	3.447
238.122	3.447
238.622	3.45
239.122	3.457
239.622	3.468
240.122	3.484
240.622	3.503
241.093	3.524
241.618	3.544
242.118	3.566
242.618	3.592
243.118	3.622
243.618	3.652
244.118	3.683
244.618	3.712
245.118	3.738
245.618	3.761
246.118	3.779
246.618	3.793
247.118	3.801
247.618	3.804
248.118	3.802
248.618	3.793
249.118	3.78
249.599	3.763
250.099	3.743
250.599	3.719
251.099	3.693
251.599	3.668
252.099	3.645
252.599	3.627
253.099	3.615
253.599	3.61
254.099	3.612
254.599	3.622
255.099	3.639
255.599	3.663
256.099	3.692
256.666	3.727
257.166	3.761
257.666	3.803
258.166	3.846
258.666	3.887
259.166	3.925
259.666	3.963
260.166	4.004
260.666	4.048
261.166	4.098
261.666	4.151
262.166	4.205
262.666	4.257
263.166	4.302
263.666	4.335
264.166	4.353
264.666	4.354
265.166	4.342
265.666	4.319
266.166	4.294
266.666	4.274
267.166	4.262
267.666	4.25
