Uv/Vis Spectrum: 5-hydroxy-2-phenyl-4H-1-benzopyran-4-one
Formula: C15H10O3
CAS: 491-78-1
Melting point: 157
Instrument: Specord UV-Vis
Origin: INSTITUTE OF ENERGY PROBLEMS OF CHEMICAL PHYSICS, RAS
Wavelength (nm)	Logarithm epsilon
212.65	4.524
213.65	4.475
214.65	4.452
215.65	4.446
216.65	4.448
217.65	4.454
218.65	4.459
219.65	4.46
220.65	4.455
221.65	4.443
222.65	4.424
223.65	4.4
224.65	4.372
225.641	4.336
226.641	4.313
227.641	4.29
228.641	4.267
229.641	4.244
230.641	4.221
231.641	4.198
231.673	4.196
232.673	4.177
233.673	4.151
234.673	4.124
235.673	4.099
236.673	4.077
237.673	4.059
238.673	4.041
240.545	3.983
241.545	3.951
242.545	3.924
243.545	3.902
244.545	3.888
245.545	3.882
246.545	3.883
247.545	3.891
248.545	3.905
249.545	3.924
250.545	3.947
251.545	3.974
252.545	4.005
253.249	4.022
254.249	4.06
255.249	4.096
256.249	4.13
257.249	4.163
258.249	4.194
259.249	4.223
260.249	4.251
261.249	4.278
262.249	4.303
263.249	4.327
264.249	4.35
265.249	4.373
266.249	4.394
267.249	4.414
268.249	4.434
269.024	4.453
270.024	4.465
271.024	4.477
272.024	4.489
273.024	4.501
274.024	4.512
275.024	4.521
276.024	4.529
277.024	4.534
278.024	4.537
279.024	4.537
280.024	4.534
281.024	4.527
282.024	4.516
283.024	4.502
284.024	4.484
285.024	4.465
285.96	4.454
286.96	4.429
287.96	4.404
288.96	4.377
289.96	4.35
290.96	4.321
291.96	4.292
292.96	4.264
293.96	4.235
294.96	4.206
295.96	4.178
296.96	4.151
297.96	4.125
298.96	4.1
299.96	4.077
300.96	4.055
301.96	4.036
302.96	4.019
303.127	4.018
304.127	4.007
305.127	3.979
306.127	3.943
307.127	3.901
308.127	3.85
308.927	3.793
309.927	3.732
310.927	3.695
311.927	3.676
312.927	3.669
313.927	3.668
314.927	3.67
315.927	3.674
316.927	3.679
317.927	3.684
318.927	3.69
319.927	3.697
320.927	3.705
321.927	3.716
322.927	3.73
323.927	3.746
325.166	3.766
326.166	3.777
327.166	3.787
328.166	3.796
329.166	3.804
330.166	3.812
331.166	3.818
332.166	3.824
333.166	3.829
334.166	3.833
335.166	3.837
336.166	3.84
337.166	3.843
338.166	3.844
339.166	3.845
340.166	3.845
341.166	3.844
342.166	3.842
343.166	3.839
344.166	3.835
345.166	3.829
346.166	3.821
347.166	3.812
348.166	3.801
349.166	3.788
350.166	3.772
351.166	3.754
352.166	3.732
353.166	3.708
354.166	3.68
355.166	3.649
356.166	3.613
