Uv/Vis Spectrum: Quinoline, 4-methyl-
Formula: C10H9N
CAS: 491-35-0
Melting point: 9.5
Boiling point: 262
Instrument: unknown
Origin: INSTITUTE OF ENERGY PROBLEMS OF CHEMICAL PHYSICS, RAS
Wavelength (nm)	Logarithm epsilon
217.56	4.616
217.73	4.62
217.9	4.624
218.07	4.629
218.24	4.633
218.41	4.637
218.58	4.641
218.74	4.645
218.91	4.649
219.08	4.654
219.59	4.662
220.1	4.674
220.6	4.674
221.11	4.67
221.62	4.666
222.12	4.658
222.63	4.641
223.14	4.624
223.64	4.604
224.15	4.599
224.66	4.583
225.16	4.566
225.67	4.549
226.18	4.524
226.68	4.503
227.19	4.474
227.7	4.437
228.2	4.382
228.71	4.336
229.22	4.282
229.72	4.22
230.23	4.157
230.73	4.057
231.24	3.932
231.75	3.715
232.25	3.639
232.76	3.581
233.27	3.535
233.77	3.493
234.28	3.477
234.79	3.435
235.29	3.414
235.8	3.389
236.31	3.372
236.81	3.351
237.32	3.339
237.83	3.331
238.33	3.322
238.84	3.318
239.35	3.306
239.85	3.301
240.36	3.297
240.87	3.297
241.37	3.297
241.88	3.297
242.39	3.301
242.89	3.306
243.4	3.314
243.91	3.322
244.41	3.331
244.92	3.331
245.43	3.347
245.93	3.351
246.44	3.364
246.95	3.372
247.45	3.376
247.96	3.389
248.47	3.393
248.97	3.406
249.48	3.414
249.99	3.418
250.49	3.431
251	3.439
251.51	3.435
252.01	3.443
252.52	3.447
253.03	3.46
253.53	3.464
254.04	3.477
254.55	3.481
255.05	3.489
255.56	3.498
256.07	3.506
256.57	3.514
257.08	3.523
257.59	3.527
258.09	3.539
258.6	3.543
259.11	3.552
259.61	3.56
260.12	3.568
260.63	3.573
261.13	3.581
261.64	3.585
262.15	3.593
262.65	3.602
263.16	3.606
263.67	3.61
264.17	3.614
264.68	3.627
265.18	3.627
265.69	3.635
266.2	3.639
266.7	3.644
267.21	3.652
267.72	3.652
268.22	3.656
268.73	3.66
269.24	3.664
269.74	3.669
270.25	3.673
270.76	3.677
271.26	3.681
271.77	3.681
272.28	3.681
272.78	3.681
273.29	3.681
273.8	3.681
274.3	3.677
274.81	3.677
275.32	3.673
275.82	3.669
276.33	3.669
276.84	3.664
277.34	3.656
277.85	3.652
278.36	3.648
278.86	3.644
279.37	3.635
279.88	3.627
280.38	3.623
280.89	3.61
281.4	3.602
281.9	3.589
282.41	3.585
282.92	3.573
283.42	3.564
283.93	3.548
284.44	3.543
284.94	3.527
285.45	3.523
285.96	3.506
286.46	3.493
286.97	3.489
287.48	3.481
287.98	3.477
288.49	3.468
289	3.46
289.5	3.456
290.01	3.443
290.52	3.431
291.02	3.418
291.53	3.402
292.04	3.381
292.54	3.376
293.05	3.356
293.56	3.335
294.06	3.314
294.57	3.289
295.08	3.268
295.58	3.251
296.09	3.226
296.6	3.21
297.1	3.205
297.61	3.205
298.12	3.21
298.62	3.23
299.13	3.243
299.64	3.255
300.14	3.264
300.65	3.264
301.15	3.264
301.66	3.264
302.17	3.255
302.67	3.239
303.18	3.226
303.69	3.21
304.19	3.193
304.7	3.176
305.21	3.168
305.71	3.151
306.22	3.147
306.73	3.139
307.23	3.126
307.74	3.118
308.25	3.101
308.75	3.08
309.26	3.059
309.77	3.038
310.27	3.034
310.78	3.03
311.29	3.034
311.79	3.059
312.3	3.122
312.81	3.205
313.31	3.268
313.82	3.31
314.33	3.318
314.83	3.31
315.33	3.245
315.86	3.157
316.38	3.06
316.89	2.965
317.08	2.929
317.64	2.848
318.15	2.783
318.38	2.755
318.89	2.667
319.39	2.583
319.9	2.5
320.41	2.404
320.91	2.316
321.42	2.233
321.93	2.154
322.43	2.074
322.94	2.008
323.45	1.941
323.95	1.87
324.46	1.807
324.97	1.736
325.47	1.69
325.98	1.636
326.49	1.59
