Uv/Vis Spectrum: 2,2'-Bithiophene
Formula: C8H6S2
CAS: 492-97-7
Melting point: 33
Boiling point: 260
Instrument: Beckman DU
Origin: INSTITUTE OF ENERGY PROBLEMS OF CHEMICAL PHYSICS, RAS
Wavelength (nm)	Logarithm epsilon
294.39	4.062
296.2	4.072
298.01	4.083
300.07	4.093
302.14	4.098
304.46	4.095
306.79	4.091
308.86	4.081
310.92	4.072
312.21	4.058
313.76	4.043
314.8	4.026
315.83	4.008
316.86	3.99
317.74	3.971
318.93	3.953
319.96	3.932
321	3.909
322.29	3.886
323.74	3.864
324.87	3.841
326.16	3.817
327.45	3.788
328.75	3.757
329.78	3.723
330.86	3.688
331.85	3.652
332.88	3.608
333.91	3.56
334.94	3.506
336.05	3.452
