Uv/Vis Spectrum: Thioxanthone
Formula: C13H8OS
CAS: 492-22-8
Melting point: 210-216
Instrument: Unicam SP 700
Origin: INSTITUTE OF ENERGY PROBLEMS OF CHEMICAL PHYSICS, RAS
Wavelength (nm)	Logarithm epsilon
209.74	3.981
210.6	4.009
211.28	4.036
212.31	4.056
213.51	4.077
214.87	4.087
215.9	4.111
216.75	4.138
217.78	4.162
219.15	4.176
220.34	4.159
220.69	4.128
221.03	4.097
221.54	4.067
221.88	4.036
222.4	4.005
222.74	3.975
223.25	3.947
223.76	3.92
224.1	3.889
224.62	3.862
225.3	3.835
226.67	3.818
228.04	3.832
229.06	3.852
229.92	3.879
230.77	3.903
231.46	3.93
232.31	3.958
232.99	3.985
233.68	4.012
234.53	4.039
235.05	4.067
235.56	4.094
236.24	4.121
237.1	4.148
237.61	4.179
238.29	4.206
239.15	4.234
239.83	4.261
240.52	4.288
241.37	4.312
242.23	4.339
243.08	4.363
243.94	4.387
244.79	4.411
245.65	4.435
246.67	4.458
247.53	4.482
248.55	4.503
249.58	4.526
250.6	4.547
251.63	4.567
252.65	4.588
254.02	4.605
255.56	4.612
257.1	4.608
258.47	4.591
259.66	4.574
260.52	4.55
261.54	4.526
262.23	4.499
262.74	4.472
263.6	4.445
264.28	4.417
264.96	4.39
265.65	4.363
266.33	4.336
267.02	4.308
267.87	4.281
268.55	4.254
269.07	4.227
269.92	4.199
270.61	4.172
271.12	4.145
271.63	4.118
272.31	4.09
272.83	4.063
273.68	4.036
274.2	4.009
274.88	3.981
275.39	3.954
276.08	3.927
276.59	3.9
277.1	3.872
277.61	3.842
278.13	3.815
278.81	3.787
279.32	3.76
280.01	3.733
280.86	3.709
281.72	3.682
282.74	3.658
283.77	3.637
285.14	3.624
286.68	3.614
288.21	3.61
289.58	3.597
290.95	3.579
291.97	3.559
292.83	3.535
293.68	3.511
294.54	3.488
295.74	3.467
297.27	3.477
298.47	3.498
300.01	3.491
300.86	3.467
301.04	3.436
301.21	3.406
301.55	3.375
301.72	3.344
302.06	3.314
302.4	3.283
302.75	3.252
303.09	3.222
303.26	3.191
303.6	3.16
303.77	3.13
303.94	3.099
304.28	3.069
304.63	3.038
304.8	3.007
305.14	2.977
305.48	2.946
305.82	2.915
306.16	2.885
306.51	2.854
306.68	2.823
307.02	2.793
307.19	2.762
307.7	2.731
308.04	2.701
308.39	2.67
308.73	2.639
309.24	2.609
309.58	2.578
309.93	2.547
310.44	2.52
310.78	2.489
311.29	2.459
311.46	2.428
311.98	2.401
312.49	2.37
313	2.343
313.86	2.329
315.05	2.333
315.91	2.36
316.76	2.387
317.45	2.414
318.47	2.438
319.33	2.466
320.18	2.493
321.04	2.52
321.89	2.544
322.75	2.571
323.6	2.595
324.46	2.622
325.48	2.646
326.34	2.673
327.36	2.694
328.39	2.718
329.41	2.741
330.44	2.762
331.47	2.782
332.32	2.81
333.18	2.833
334.03	2.861
334.89	2.888
335.74	2.915
336.42	2.942
337.28	2.97
337.96	2.997
338.65	3.024
339.5	3.048
340.18	3.075
341.04	3.099
342.07	3.123
342.92	3.15
343.77	3.178
344.63	3.201
345.48	3.225
346.51	3.249
347.37	3.276
348.39	3.297
349.25	3.324
350.27	3.344
351.3	3.365
352.15	3.389
353.18	3.413
354.37	3.433
355.57	3.453
356.6	3.477
357.79	3.498
358.99	3.518
360.02	3.542
361.21	3.562
362.58	3.576
363.78	3.593
364.97	3.61
366.17	3.627
367.37	3.644
368.73	3.658
369.93	3.675
371.3	3.685
372.67	3.695
374.03	3.706
375.4	3.716
376.94	3.723
378.48	3.729
380.02	3.733
381.56	3.736
383.1	3.733
384.63	3.726
386.17	3.719
387.54	3.706
388.91	3.688
390.1	3.671
391.3	3.651
392.16	3.627
393.35	3.607
394.38	3.586
395.23	3.562
396.26	3.539
397.11	3.515
397.97	3.491
398.99	3.467
399.68	3.44
400.53	3.416
401.22	3.389
402.07	3.365
402.76	3.338
403.61	3.31
404.29	3.283
404.98	3.256
405.66	3.229
406.35	3.201
406.86	3.174
407.54	3.147
408.05	3.12
408.4	3.089
409.08	3.062
409.59	3.034
410.11	3.007
410.79	2.98
411.3	2.953
411.82	2.925
412.33	2.898
412.84	2.871
413.35	2.844
413.87	2.816
414.38	2.789
414.89	2.759
415.41	2.728
415.92	2.701
416.43	2.673
416.94	2.646
417.63	2.619
418.14	2.592
418.65	2.564
419.34	2.537
419.85	2.506
420.53	2.479
421.05	2.452
421.56	2.425
422.07	2.394
422.59	2.367
423.1	2.34
423.78	2.312
424.3	2.285
424.98	2.258
425.49	2.23
426.18	2.203
426.69	2.173
427.2	2.145
427.89	2.118
428.4	2.091
428.91	2.064
429.42	2.036
429.94	2.009
430.45	1.982
431.13	1.955
431.65	1.927
432.16	1.9
432.84	1.873
