Uv/Vis Spectrum: Benzeneacetic acid, <alpha>-methylene-
Formula: C9H8O2
CAS: 492-38-6
Melting point: 106-107
Instrument: Jobin-Yvon, Maroc
Origin: INSTITUTE OF ENERGY PROBLEMS OF CHEMICAL PHYSICS, RAS
Wavelength (nm)	Logarithm epsilon
216.25	3.934
217.09	3.91
218.09	3.887
218.93	3.859
219.77	3.835
220.6	3.811
221.27	3.784
222.28	3.76
223.12	3.736
224.12	3.716
225.29	3.695
226.63	3.678
227.98	3.665
229.48	3.654
230.99	3.647
232.5	3.647
234.01	3.658
235.51	3.665
236.85	3.678
238.19	3.692
239.53	3.702
240.87	3.716
242.21	3.729
243.55	3.743
245.06	3.747
246.57	3.753
248.08	3.757
249.58	3.753
251.09	3.75
252.43	3.736
253.77	3.719
254.95	3.699
256.12	3.678
257.12	3.658
258.3	3.637
259.3	3.613
260.31	3.593
261.31	3.569
262.15	3.545
263.15	3.521
263.99	3.497
265	3.473
265.83	3.446
266.67	3.422
267.51	3.395
268.35	3.371
269.18	3.347
270.02	3.32
270.86	3.292
271.7	3.268
272.53	3.244
273.37	3.217
274.21	3.19
275.05	3.162
275.88	3.135
276.55	3.108
277.39	3.084
278.06	3.057
278.9	3.029
279.74	3.002
280.41	2.975
281.25	2.947
281.92	2.92
282.75	2.893
283.42	2.865
284.26	2.838
284.93	2.811
285.77	2.783
286.44	2.756
286.94	2.729
287.78	2.701
288.45	2.674
288.95	2.647
