Uv/Vis Spectrum: 5H-Dibenz[b,f]azepine, 10,11-dihydro-
Formula: C14H13N
CAS: 494-19-9
Instrument: n.i.g.
Origin: INSTITUTE OF ENERGY PROBLEMS OF CHEMICAL PHYSICS, RAS
Wavelength (nm)	Logarithm epsilon
229.787	3.63042
231.048	3.61788
231.45	3.60937
231.9	3.59687
232.301	3.58886
232.705	3.58435
233.157	3.57634
233.558	3.56784
233.96	3.55983
234.412	3.55132
234.813	3.54282
235.214	3.53481
235.616	3.5263
236.07	3.52229
236.471	3.51378
236.875	3.50977
237.327	3.50126
237.73	3.49725
238.132	3.48874
238.586	3.48473
239.391	3.47221
239.794	3.46819
240.249	3.46418
240.652	3.45967
241.911	3.44313
242.314	3.43912
243.176	3.43908
247.382	3.43438
248.652	3.43881
249.061	3.44677
249.52	3.45124
250.741	3.45917
251.199	3.46364
251.607	3.46761
252.017	3.47608
252.477	3.48404
252.889	3.4965
253.764	3.52142
254.581	3.53385
255.044	3.54631
255.453	3.55428
255.865	3.56674
256.275	3.5752
256.738	3.58766
257.15	3.60012
257.56	3.60808
258.022	3.62054
258.434	3.633
258.846	3.64546
259.307	3.65392
259.719	3.66638
260.128	3.67435
260.54	3.68681
261.007	3.70775
261.417	3.71571
261.829	3.72817
262.293	3.74462
262.705	3.75708
263.119	3.77403
263.582	3.78599
263.996	3.80294
264.408	3.8154
264.87	3.82786
265.282	3.83982
265.694	3.85227
266.106	3.86473
266.569	3.87719
266.983	3.89364
267.392	3.90211
267.855	3.91456
268.267	3.92702
268.679	3.93948
269.142	3.95194
269.553	3.9644
269.963	3.97236
270.428	3.98881
270.838	3.99728
271.25	4.00974
271.659	4.0182
272.122	4.03066
272.532	4.03862
272.944	4.05108
273.402	4.05505
273.816	4.072
274.228	4.08397
274.688	4.09243
275.1	4.10489
275.512	4.11735
275.924	4.1298
276.385	4.13777
276.795	4.14623
277.206	4.15869
277.669	4.17115
278.079	4.17961
278.489	4.18758
278.949	4.19604
279.359	4.20401
279.769	4.21248
280.229	4.22094
280.639	4.22891
281.047	4.23338
281.457	4.24134
281.917	4.24981
282.325	4.25378
283.193	4.26622
283.601	4.27019
284.008	4.27466
284.469	4.28263
285.74	4.29105
286.554	4.295
287.823	4.29893
288.683	4.2949
292.027	4.29074
293.696	4.28217
294.558	4.28213
295.821	4.27408
296.224	4.26957
296.628	4.26556
297.887	4.24902
299.6	4.22797
299.995	4.20749
300.401	4.20747
301.666	4.20291
302.927	4.19037
304.186	4.17384
304.588	4.16583
305.04	4.15732
305.441	4.14882
305.836	4.12833
306.291	4.12432
306.696	4.1243
307.098	4.11579
307.49	4.09081
308.344	4.0743
308.743	4.0618
309.193	4.0493
309.571	3.99537
309.966	3.97489
310.423	3.97486
310.826	3.97035
311.225	3.95785
312.072	3.92886
312.472	3.91636
312.869	3.89987
313.313	3.87489
313.702	3.84192
314.101	3.82943
314.542	3.80045
314.939	3.78346
315.334	3.76297
315.782	3.74648
316.175	3.7215
316.57	3.70052
316.965	3.68003
317.411	3.65905
317.802	3.63008
318.195	3.6051
318.641	3.58461
319.032	3.55564
319.418	3.51818
319.86	3.48921
320.251	3.46024
320.641	3.43077
321.083	3.4018
321.472	3.36883
321.863	3.33986
322.253	3.31089
322.695	3.28142
323.088	3.25694
323.477	3.22348
323.923	3.20299
324.313	3.17402
324.704	3.14455
325.148	3.12007
325.536	3.08661
325.929	3.06163
326.375	3.04114
326.772	3.02415
327.153	2.97471
327.535	2.92877
327.97	2.88732
328.359	2.85435
328.746	2.8169
329.187	2.78793
329.574	2.75047
329.967	2.72549
330.406	2.69253
330.797	2.66356
331.192	2.64257
331.581	2.60961
332.027	2.58862
332.42	2.56414
333.26	2.52217
333.656	2.50169
334.49	2.44773
334.891	2.43923
335.287	2.41874
335.728	2.38977
336.129	2.38126
336.531	2.37276
336.926	2.35227
337.376	2.33977
337.769	2.3148
338.166	2.2983
338.616	2.2858
339.013	2.26931
339.41	2.25282
339.86	2.24032
340.26	2.22782
340.659	2.21532
341.109	2.20282
341.508	2.19032
341.909	2.18181
