Uv/Vis Spectrum: 1,4-Butanedione, 1,4-diphenyl-
Formula: C16H14O2
CAS: 495-71-6
Melting point: 144-145
Instrument: n.i.g.
Origin: INSTITUTE OF ENERGY PROBLEMS OF CHEMICAL PHYSICS, RAS
Wavelength (nm)	Logarithm epsilon
210.51	3.957
210.97	3.95
211.43	3.936
211.89	3.929
212.35	3.915
212.81	3.908
213.75	3.88
214.22	3.873
214.69	3.859
215.16	3.852
216.12	3.827
216.6	3.806
217.08	3.795
218.05	3.774
218.54	3.771
219.03	3.767
219.52	3.771
220.52	3.778
221.02	3.781
221.52	3.792
222.03	3.809
222.53	3.831
223.04	3.838
223.55	3.852
224.07	3.876
224.58	3.911
225.1	3.918
225.62	3.932
226.15	3.96
226.67	3.999
227.2	4.024
228.27	4.069
228.8	4.101
229.34	4.133
229.88	4.15
230.43	4.171
230.97	4.189
231.52	4.213
232.07	4.227
232.63	4.248
233.18	4.27
233.74	4.287
234.3	4.308
234.87	4.343
235.44	4.347
236.01	4.364
236.58	4.371
237.16	4.378
237.73	4.392
238.32	4.399
238.9	4.41
240.08	4.428
240.67	4.424
241.27	4.428
241.86	4.428
242.47	4.428
243.07	4.428
243.68	4.424
244.29	4.421
245.52	4.421
246.14	4.406
246.76	4.399
247.39	4.389
248.02	4.382
248.65	4.364
249.29	4.35
249.93	4.312
250.57	4.305
251.22	4.277
251.87	4.245
252.52	4.22
253.18	4.168
253.84	4.126
254.5	4.073
255.16	4.027
255.83	3.992
256.51	3.866
257.18	3.778
257.87	3.715
258.55	3.627
259.24	3.585
259.93	3.514
260.62	3.469
261.32	3.427
262.03	3.374
262.73	3.342
263.44	3.321
264.16	3.297
264.87	3.276
265.6	3.258
266.32	3.248
267.05	3.237
268.52	3.216
269.27	3.216
270.01	3.212
270.76	3.216
271.52	3.219
272.28	3.223
273.04	3.234
273.81	3.244
274.58	3.265
275.35	3.269
276.13	3.269
276.92	3.269
277.71	3.269
278.5	3.265
279.3	3.269
280.1	3.255
280.91	3.251
281.72	3.241
282.54	3.237
283.36	3.223
284.19	3.216
285.02	3.191
285.85	3.174
286.69	3.156
287.54	3.132
288.39	3.093
289.25	3.076
290.11	3.033
290.98	2.998
291.85	2.949
293.61	2.826
294.49	2.742
295.39	2.644
296.28	2.542
297.19	2.471
298.1	2.401
299.01	2.363
299.93	2.335
300.86	2.292
301.79	2.261
302.73	2.236
303.67	2.212
304.62	2.198
305.57	2.173
306.54	2.159
307.5	2.141
308.48	2.138
310.44	2.106
311.43	2.092
312.43	2.085
313.44	2.075
314.45	2.068
315.47	2.061
316.49	2.05
317.52	2.047
318.56	2.036
319.61	2.025
320.66	2.011
321.72	1.994
322.78	1.98
323.86	1.966
324.94	1.969
326.02	1.945
327.12	1.924
328.22	1.896
329.33	1.878
330.44	1.857
331.57	1.85
332.7	1.801
333.84	1.766
334.99	1.737
336.14	1.688
337.31	1.65
338.48	1.615
339.66	1.513
340.85	1.418
341.25	1.414
341.64	1.411
342.04	1.404
