Uv/Vis Spectrum: Benzhydroxamic acid
Formula: C7H7NO2
CAS: 495-18-1
Instrument: Spectrograph ISP-22
Origin: INSTITUTE OF ENERGY PROBLEMS OF CHEMICAL PHYSICS, RAS
Wavelength (nm)	Logarithm epsilon
231.96	4.0256
231.96	4.0256
232.207	4.0256
232.253	4.01023
232.454	4.0256
232.562	3.99477
232.702	4.0256
232.702	4.0256
232.702	4.0231
232.702	4.0206
232.702	4.0181
232.879	3.97916
234.186	3.92557
234.785	3.89297
235.155	3.87672
235.282	3.86627
236.664	3.82443
236.731	3.83662
236.762	3.81415
237.473	3.78482
237.473	3.8034
237.767	3.77578
238.076	3.76659
238.392	3.75731
242.987	3.79589
243.381	3.81176
243.665	3.81945
244.083	3.82555
245.178	3.84769
245.295	3.85402
245.427	3.86018
245.567	3.86627
249.42	3.93665
251.683	3.94624
254.014	3.95235
256.405	3.95442
258.847	3.95187
261.331	3.94415
267.233	3.89235
268.082	3.87948
268.93	3.86652
269.778	3.85341
273.807	3.79232
275.387	3.76319
276.056	3.7493
276.387	3.73874
277.872	3.7073
278.614	3.71837
278.614	3.72086
278.614	3.72327
278.614	3.72552
279.367	3.70964
279.71	3.66264
279.911	3.69317
280.063	3.67193
280.18	3.66406
280.666	3.6654
281.159	3.66657
281.159	3.66657
281.276	3.65182
281.408	3.63691
281.548	3.62192
281.901	3.54797
282.078	3.5401
282.255	3.53214
282.431	3.52404
283.739	3.44794
283.739	3.45044
283.739	3.45294
283.739	3.45544
284.093	3.42579
284.138	3.42401
284.2	3.42222
284.269	3.42043
285.577	3.34827
285.577	3.35076
285.577	3.35317
285.577	3.35542
286.319	3.30362
286.319	3.30612
286.319	3.30862
286.319	3.31112
287.415	3.22967
287.815	3.22268
288.145	3.20879
288.687	3.17608
289.995	3.10392
290.396	3.07845
290.726	3.06354
291.267	3.0464
292.186	2.97067
292.294	2.96567
292.409	2.96067
292.54	2.95566
294.767	2.85207
295.051	2.83312
295.342	2.81409
295.65	2.79491
296.604	2.72274
296.712	2.71846
296.827	2.71417
296.958	2.70988
297.311	2.69309
297.357	2.69013
297.419	2.68701
297.488	2.6838
298.796	2.60414
299.266	2.57699
299.751	2.54984
300.245	2.52269
301.376	2.45981
302.292	2.41648
302.769	2.39824
303.214	2.38944
304.663	2.37479
304.707	2.33724
304.718	2.35616
304.762	2.31074
305.016	2.2694
305.759	2.22296
306.113	2.19106
306.476	2.159
306.854	2.12687
307.243	2.07114
307.667	2.07067
308.091	2.07005
308.515	2.06935
308.515	2.06935
308.767	2.04944
309.183	2.02698
309.788	1.98611
310.919	1.94539
311.389	1.91349
311.875	1.88143
312.368	1.84929
312.757	1.80463
313.112	1.78881
313.474	1.77283
313.853	1.75676
314.595	1.72711
314.595	1.7321
314.595	1.73701
314.595	1.74176
315.302	1.68246
315.656	1.65922
316.019	1.63591
316.397	1.61244
