Uv/Vis Spectrum: s-Indacene,1,2,3,5,6,7,hexahydro-
Formula: C12H14
CAS: 495-52-3
Melting point: 52-54
Instrument: Beckman DK 2
Origin: INSTITUTE OF ENERGY PROBLEMS OF CHEMICAL PHYSICS, RAS
Wavelength (nm)	Logarithm epsilon
219.42	3.907
219.53	3.905
219.63	3.903
219.73	3.903
219.84	3.901
219.94	3.898
220.04	3.898
220.15	3.896
220.25	3.894
220.35	3.892
220.58	3.89
220.75	3.888
220.98	3.888
221.19	3.888
221.4	3.89
221.61	3.894
221.82	3.894
222.03	3.89
222.24	3.883
222.46	3.871
222.67	3.866
222.88	3.864
223.08	3.861
223.31	3.857
223.52	3.845
223.73	3.817
223.95	3.794
224.16	3.766
224.38	3.74
224.6	3.708
224.81	3.672
225.03	3.619
225.25	3.585
225.46	3.555
225.68	3.527
225.9	3.499
226.12	3.484
226.34	3.461
226.56	3.435
226.78	3.414
227	3.395
227.22	3.38
227.44	3.36
227.66	3.337
227.89	3.316
228.11	3.29
228.33	3.275
228.55	3.247
228.78	3.222
229	3.196
229.23	3.177
229.45	3.147
229.68	3.094
229.91	3.064
230.13	3.034
230.36	2.976
230.59	2.938
230.81	2.899
231.04	2.85
231.27	2.818
231.5	2.78
231.73	2.737
231.96	2.703
232.19	2.656
232.42	2.615
232.66	2.558
232.89	2.511
233.12	2.47
233.35	2.419
233.59	2.378
233.82	2.336
234.06	2.293
234.29	2.246
234.53	2.212
234.76	2.173
235	2.135
235.23	2.107
235.47	2.088
235.71	2.054
235.95	2.035
236.19	2.02
236.43	2.009
236.67	2.001
236.91	1.998
237.15	1.996
237.39	1.994
237.63	1.994
237.87	1.994
238.11	1.994
238.36	1.996
238.6	1.996
238.85	1.998
239.09	2.003
239.34	2.007
239.58	2.011
239.83	2.018
240.07	2.024
240.32	2.033
240.57	2.041
240.81	2.047
241.06	2.054
241.32	2.06
241.56	2.069
241.82	2.077
242.05	2.083
242.32	2.09
242.57	2.099
242.82	2.109
243.07	2.118
243.29	2.123
243.58	2.133
243.84	2.141
244.09	2.15
244.35	2.161
244.6	2.171
244.86	2.18
245.12	2.191
245.37	2.199
245.63	2.21
245.89	2.218
246.15	2.229
246.65	2.248
247.13	2.264
247.73	2.284
248.52	2.312
249	2.33
249.7	2.355
250.3	2.377
250.79	2.396
251.33	2.418
251.73	2.434
252	2.447
252.27	2.46
252.54	2.477
252.82	2.489
253.09	2.504
253.37	2.519
253.64	2.532
253.92	2.551
254.19	2.568
254.47	2.586
254.75	2.596
255.03	2.613
255.31	2.632
255.58	2.654
255.86	2.671
256.15	2.682
256.43	2.692
256.71	2.701
256.99	2.705
257.28	2.714
257.56	2.722
257.84	2.729
258.13	2.737
258.41	2.748
258.7	2.765
258.99	2.778
259.28	2.805
259.56	2.842
259.85	2.876
260.14	2.906
260.43	2.931
260.72	2.953
261.02	2.97
261.31	2.987
261.6	3.002
261.89	3.015
262.19	3.03
262.48	3.04
262.78	3.051
263.07	3.055
263.37	3.064
263.67	3.072
263.97	3.083
264.27	3.096
264.57	3.111
264.87	3.123
265.17	3.132
265.47	3.147
265.77	3.162
266.07	3.175
266.38	3.19
266.68	3.202
266.99	3.213
267.29	3.224
267.6	3.23
267.91	3.239
268.21	3.249
268.52	3.258
268.83	3.269
269.14	3.279
269.45	3.292
269.76	3.309
270.08	3.328
270.39	3.36
270.7	3.399
271.02	3.435
271.33	3.437
271.65	3.429
271.96	3.414
272.28	3.401
272.6	3.397
272.92	3.395
273.24	3.395
273.56	3.397
273.88	3.405
274.2	3.414
274.52	3.431
274.85	3.45
275.17	3.484
275.5	3.516
275.82	3.548
276.15	3.57
276.47	3.572
276.8	3.57
277.13	3.555
277.46	3.525
277.79	3.521
278.12	3.518
278.45	3.518
278.79	3.518
279.12	3.523
279.45	3.54
279.79	3.563
280.12	3.589
280.46	3.593
280.8	3.593
281.14	3.589
281.48	3.568
281.82	3.51
282.16	3.48
282.5	3.448
282.84	3.442
283.18	3.437
283.53	3.437
283.87	3.439
284.22	3.442
284.56	3.448
284.91	3.461
285.26	3.495
285.61	3.572
285.96	3.61
286.31	3.614
286.66	3.612
287.01	3.591
287.37	3.533
287.72	3.482
288.08	3.412
288.43	3.367
288.79	3.286
289.15	3.207
289.51	3.1
289.87	3.023
290.23	2.951
290.59	2.876
290.95	2.801
291.31	2.726
291.68	2.654
292.06	2.571
292.5	2.486
293.02	2.389
293.61	2.278
294.19	2.168
294.83	2.058
295.63	1.923
296.67	1.75
297.67	1.602
298.23	1.52
298.77	1.441
299.15	1.381
299.54	1.307
299.92	1.236
