Uv/Vis Spectrum: Azoxybenzene
Formula: C12H10N2O
CAS: 495-48-7
Melting point: 36
Instrument: n.i.g.
Origin: INSTITUTE OF ENERGY PROBLEMS OF CHEMICAL PHYSICS, RAS
Wavelength (nm)	Logarithm epsilon
218.27	3.968
219.63	3.947
221	3.925
222.4	3.904
223.81	3.888
225.24	3.872
226.69	3.856
228.34	3.845
230.02	3.84
231.72	3.824
233.44	3.813
235.2	3.802
236.97	3.797
238.78	3.781
240.61	3.775
242.48	3.775
244.37	3.775
246.29	3.775
248.24	3.775
250.22	3.781
252.24	3.791
254.28	3.802
256.1	3.797
258.1	3.777
260.15	3.754
261.92	3.734
264.29	3.717
266.54	3.711
268.83	3.711
271.15	3.717
273.26	3.733
275.37	3.749
277.83	3.77
280.15	3.791
282.58	3.82
284.56	3.845
286.83	3.874
288.93	3.904
290.72	3.941
293.14	3.963
295.29	3.99
297.78	4.011
300.32	4.038
303.23	4.054
305.86	4.081
308.53	4.097
311.6	4.107
314.73	4.123
317.93	4.14
321.18	4.15
324.51	4.15
327.91	4.145
331.37	4.134
334.12	4.102
336.92	4.07
339.76	4.043
342.23	4.011
344.74	3.979
347.29	3.941
349.88	3.904
352.06	3.861
354.27	3.818
356.06	3.775
358.32	3.738
359.69	3.695
361.08	3.647
362.93	3.604
364.34	3.556
365.76	3.508
367.19	3.46
368.63	3.411
370.08	3.363
371.54	3.315
373.02	3.267
374.01	3.219
375	3.17
376.5	3.122
377.01	3.074
378.52	3.026
380.05	2.978
381.08	2.929
382.11	2.881
383.67	2.833
384.72	2.785
385.77	2.737
386.83	2.688
387.9	2.64
388.95	2.598
390.04	2.544
391.12	2.496
391.87	2.456
392.79	2.407
393.72	2.366
394.56	2.32
395.22	2.284
396.03	2.241
396.95	2.195
397.57	2.157
398.31	2.11
399.06	2.066
400.04	2.012
401.2	1.946
402.41	1.881
403.52	1.828
404.59	1.773
405.76	1.725
406.41	1.689
407.51	1.628
408.31	1.583
409.29	1.532
410.48	1.484
411.68	1.435
412.51	1.39
413.46	1.347
414.13	1.305
415.17	1.254
416.54	1.194
417.47	1.152
418.4	1.098
419.23	1.051
420.27	1.002
