Uv/Vis Spectrum: 1,2-Benzenediamine, 4-methyl-
Formula: C7H10N2
CAS: 496-72-0
Instrument: Unicam SP 800 B
Origin: INSTITUTE OF ENERGY PROBLEMS OF CHEMICAL PHYSICS, RAS
Wavelength (nm)	Logarithm epsilon
206.76	3.815
207.76	3.802
209.12	3.778
210.01	3.756
210.91	3.733
211.99	3.706
212.84	3.679
213.7	3.658
214.86	3.631
216.05	3.611
217.57	3.601
219.09	3.607
220.27	3.625
221.45	3.645
222.47	3.669
223.48	3.689
224.5	3.714
225.34	3.733
226.35	3.754
227.53	3.774
228.72	3.795
230.07	3.812
231.42	3.827
232.94	3.832
234.46	3.829
235.98	3.819
237.33	3.802
238.51	3.781
239.36	3.757
240.2	3.73
240.88	3.703
241.46	3.679
242.23	3.648
242.74	3.621
243.41	3.594
244.09	3.567
244.54	3.543
245.15	3.511
245.78	3.482
246.45	3.454
246.96	3.424
247.47	3.393
247.97	3.366
248.48	3.339
248.99	3.311
249.32	3.281
249.83	3.25
250.17	3.219
250.68	3.192
251.01	3.161
251.35	3.131
251.69	3.1
252.09	3.062
252.41	3.032
252.7	3.008
253.04	2.978
253.38	2.947
253.72	2.916
254.05	2.886
254.44	2.856
254.9	2.828
255.41	2.801
255.91	2.773
256.42	2.746
256.93	2.719
257.47	2.692
258.28	2.664
259.29	2.644
260.64	2.634
261.99	2.644
263.18	2.664
264.02	2.688
264.86	2.715
265.71	2.739
266.76	2.769
267.57	2.79
268.41	2.818
269.26	2.841
270.1	2.865
271.11	2.889
271.96	2.916
272.8	2.944
273.82	2.967
274.66	2.995
275.68	3.018
276.52	3.046
277.53	3.07
278.38	3.093
279.39	3.117
280.41	3.141
281.59	3.158
282.77	3.175
284.29	3.175
285.81	3.175
287.33	3.168
288.51	3.151
289.36	3.127
290.37	3.104
291.22	3.08
292.23	3.056
293.21	3.029
294.09	3.005
294.75	2.981
295.61	2.954
296.28	2.927
297.13	2.899
297.8	2.872
298.46	2.846
299.32	2.821
300.68	2.804
301.69	2.784
302.53	2.756
303.21	2.729
303.72	2.702
304.22	2.675
304.73	2.647
305.28	2.616
305.76	2.588
306.25	2.559
306.93	2.532
307.43	2.504
307.94	2.477
308.28	2.446
308.78	2.419
309.29	2.392
309.68	2.363
310.14	2.334
310.47	2.303
310.98	2.276
311.49	2.249
311.99	2.218
312.33	2.188
312.67	2.157
313.18	2.13
313.54	2.103
314.02	2.072
314.44	2.046
314.86	2.014
315.2	1.983
315.54	1.953
315.88	1.922
316.22	1.895
316.72	1.864
317.06	1.834
317.4	1.803
317.79	1.77
318.07	1.742
318.41	1.711
318.75	1.68
319.09	1.65
319.26	1.619
319.59	1.588
319.93	1.558
320.27	1.527
320.78	1.5
320.95	1.469
321.28	1.439
321.62	1.408
321.96	1.377
322.13	1.347
322.47	1.316
322.64	1.285
322.97	1.255
323.31	1.224
323.48	1.194
