Uv/Vis Spectrum: Indan
Formula: C9H10
CAS: 496-11-7
Melting point: -51.4
Boiling point: 177.9
Instrument: Cary UV spectrophotometer
Origin: INSTITUTE OF ENERGY PROBLEMS OF CHEMICAL PHYSICS, RAS
Wavelength (nm)	Logarithm epsilon
230	2.2
231	2.15
232	2.12
233	2.11
234	2.1
235	2.1
236	2.1
237	2.1
238	2.12
239	2.13
240	2.16
241	2.19
242	2.22
243	2.25
244	2.27
245	2.31
246	2.35
247	2.39
248	2.43
249	2.47
250	2.53
251	2.59
252	2.65
253	2.68
254	2.7
255	2.75
256	2.8
257	2.84
258	2.89
259	2.93
260	2.93
261	2.92
262	2.91
263	2.97
264	3.03
265	3.08
266	3.11
267	3.11
268	2.99
269	2.74
270	2.7
271	2.9
272	3.17
273	3.21
274	3.06
275	2.83
276	2.59
277	2.37
278	2.14
279	1.92
