Uv/Vis Spectrum: 2,3-Dihydrobenzofuran
Formula: C8H8O
CAS: 496-16-2
Melting point: -21.5
Boiling point: 188.5
Instrument: n.i.g.
Origin: INSTITUTE OF ENERGY PROBLEMS OF CHEMICAL PHYSICS, RAS
Wavelength (nm)	Logarithm epsilon
288.771	1.31195
288.715	1.35857
288.578	1.38305
288.542	1.46511
288.527	1.43866
288.525	1.4351
288.523	1.43154
288.521	1.42798
288.506	1.40153
288.472	1.49512
288.396	1.52502
288.307	1.55469
288.084	1.71803
288.071	1.69359
288.057	1.66904
288.043	1.64427
287.847	1.80252
287.778	1.83443
287.703	1.86611
287.615	1.89769
287.067	1.98224
286.793	2.02531
286.576	2.16699
286.576	2.16699
286.521	2.06825
286.457	2.19986
286.376	2.16281
286.359	2.23272
286.28	2.26555
286.249	2.11108
286.216	2.29835
286.176	2.1584
286.163	2.33113
286.117	2.36387
286.076	2.39657
286.036	2.42924
285.993	2.46186
285.977	2.15387
285.977	2.15387
285.944	2.49443
285.885	2.52694
285.814	2.5594
285.726	2.5918
285.618	2.62414
285.486	2.65641
285.328	2.68861
285.166	2.76804
285.164	2.76484
285.163	2.76141
285.161	2.75787
285.14	2.72074
284.885	2.81591
284.815	2.84236
284.739	2.8687
284.65	2.89481
284.421	2.98439
284.344	3.01085
284.254	3.03732
284.159	3.06379
283.927	3.14829
283.737	3.2112
283.635	3.25613
283.575	3.28876
283.512	3.31477
283.399	3.33986
283.191	3.36971
283.191	3.36971
282.981	3.37544
282.917	3.42267
282.91	3.38917
282.801	3.46237
282.668	3.47039
282.535	3.47817
282.402	3.48585
281.811	3.45442
281.602	3.42124
281.393	3.38783
281.185	3.35432
280.568	3.2649
280.472	3.23846
280.37	3.21203
280.256	3.1856
280.22	3.11743
280.218	3.11387
280.216	3.11031
280.214	3.10675
280.192	3.06453
280.189	3.05943
280.186	3.05421
280.183	3.04876
280.022	2.99894
279.99	3.00505
279.947	3.01116
279.897	3.01728
279.576	2.96952
279.484	2.9502
279.387	2.93089
279.277	2.91158
277.892	2.9149
277.64	2.94227
277.383	2.96941
277.114	2.99644
276.599	3.07031
276.528	3.08645
276.45	3.10236
276.361	3.11817
275.992	3.21592
275.87	3.23426
275.742	3.25259
275.602	3.27094
275.369	3.32389
275.089	3.36443
274.826	3.38915
274.353	3.41922
273.255	3.38739
273.138	3.36173
272.693	3.33806
272.425	3.31379
270.182	3.28015
269.627	3.28637
269.063	3.29259
268.496	3.29881
265.696	3.28871
264.839	3.27248
264.351	3.2608
263.921	3.255
263.681	3.25251
263.514	3.25254
263.347	3.25258
263.18	3.25261
261.929	3.21066
261.526	3.20718
261.119	3.20371
260.704	3.20024
260.47	3.20029
260.307	3.20033
260.144	3.20036
259.982	3.2004
257.854	3.23241
257.782	3.23955
257.699	3.24669
257.612	3.25383
256.466	3.33039
256.33	3.34553
256.185	3.36045
256.034	3.37526
255.168	3.41917
255.094	3.38107
255.061	3.45335
254.683	3.51292
254.481	3.56028
254.311	3.56463
254.249	3.56873
254.244	3.5761
254.04	3.61837
253.826	3.63775
253.608	3.65713
253.38	3.67652
252.493	3.76117
252.264	3.79734
252.096	3.81519
251.845	3.83
250.534	3.90916
250.388	3.91922
250.241	3.92905
250.095	3.93877
250.095	3.93877
249.88	3.93982
249.66	3.94075
249.431	3.94147
249.431	3.94147
249.024	3.92109
248.549	3.90298
247.752	3.88642
246.782	3.92888
246.509	3.94215
246.228	3.95532
245.943	3.96826
244.028	4.02672
243.823	4.02677
243.613	4.02682
243.395	4.02688
243.395	4.02688
243.371	4.03146
243.337	4.03605
243.299	4.04064
243.299	4.04064
242.99	4.04514
242.673	4.04943
242.352	4.05359
241.107	4.05391
240.407	4.04623
239.901	4.03884
239.154	4.02541
237.6	3.99682
237.367	3.99622
237.135	3.9954
236.903	3.99446
236.903	3.99446
236.477	3.97421
235.949	3.95794
235.197	3.93946
234.186	3.86597
234.054	3.86601
233.922	3.86604
233.791	3.86608
232.822	3.87703
232.5	3.86389
232.175	3.85075
231.843	3.83761
