Uv/Vis Spectrum: Phthalan
Formula: C8H8O
CAS: 496-14-0
Instrument: n.i.g.
Origin: INSTITUTE OF ENERGY PROBLEMS OF CHEMICAL PHYSICS, RAS
Wavelength (nm)	Logarithm epsilon
225.736	2.48846
225.845	2.48452
225.946	2.47102
226.129	2.43638
226.129	2.43638
226.426	2.41554
226.708	2.39486
226.982	2.37452
226.982	2.37452
227.407	2.30669
227.779	2.25014
228.106	2.20249
228.396	2.16134
228.657	2.12434
228.895	2.0891
229.119	2.05323
229.119	2.05323
229.328	2.04671
229.53	2.04052
229.716	2.03449
229.716	2.03449
229.813	2.02188
229.902	2.00942
229.976	1.99731
229.976	1.99731
230.185	1.99078
230.387	1.98459
230.573	1.97856
230.573	1.97856
230.767	1.96388
230.946	1.94953
231.116	1.93535
231.116	1.93535
231.457	1.92161
231.73	1.91267
232.169	1.90088
232.169	1.90088
232.226	1.89567
232.268	1.89046
232.301	1.88526
232.301	1.88526
232.504	1.88299
232.691	1.8809
232.871	1.87914
233.484	1.88192
233.926	1.89514
234.375	1.90836
234.841	1.92158
234.841	1.92158
236.177	1.97547
237.388	2.02592
238.472	2.07173
239.426	2.11175
240.247	2.14478
240.247	2.14478
241.471	2.19861
242.695	2.2526
243.92	2.30692
243.92	2.30692
244.333	2.32928
244.753	2.35197
245.19	2.37481
245.19	2.37481
247.274	2.45394
248.751	2.50922
249.773	2.54688
250.49	2.57312
251.053	2.59417
251.614	2.61626
251.614	2.61626
251.655	2.61998
251.702	2.62387
251.767	2.62808
251.767	2.62808
252.024	2.63542
252.28	2.64277
252.537	2.65011
252.537	2.65011
253.351	2.68328
254.165	2.71662
254.98	2.75029
254.98	2.75029
255.905	2.78065
256.546	2.8045
257.453	2.84229
257.453	2.84229
257.708	2.84741
257.963	2.85253
258.218	2.85764
258.218	2.85764
258.902	2.85743
259.593	2.85722
260.301	2.857
260.301	2.857
261.048	2.88222
261.812	2.90777
262.583	2.93348
262.583	2.93348
262.623	2.9372
262.671	2.94109
262.735	2.9453
262.735	2.9453
262.991	2.95119
263.247	2.95724
263.503	2.96362
263.503	2.96362
263.846	2.97687
264.206	2.99012
264.573	3.00337
264.573	3.00337
264.969	3.00401
265.364	3.00482
265.76	3.00597
265.76	3.00597
265.788	2.9926
265.823	2.97923
265.875	2.96585
265.875	2.96585
266.037	2.95343
266.217	2.93391
266.506	2.89501
266.994	2.82446
267.772	2.70996
267.772	2.70996
267.915	2.70769
269.004	2.72516
269.004	2.72516
269.249	2.80054
269.44	2.85872
269.593	2.90385
269.721	2.94008
269.841	2.97154
269.968	3.00238
270.116	3.03674
270.302	3.07878
270.302	3.07878
270.614	3.07742
270.91	3.07639
271.198	3.07553
271.198	3.07553
271.625	3.03609
272.037	2.99682
272.441	2.95788
272.441	2.95788
272.627	2.91852
272.804	2.87932
272.966	2.84045
272.966	2.84045
273.008	2.81313
273.052	2.77856
273.098	2.73794
273.146	2.69243
273.194	2.64321
273.244	2.59146
273.295	2.53835
273.346	2.48506
273.397	2.43276
273.448	2.38263
273.499	2.33584
273.549	2.29358
273.597	2.25701
273.645	2.22731
273.691	2.20567
273.691	2.20567
273.979	2.1724
274.252	2.13946
274.517	2.1067
274.517	2.1067
274.694	2.06435
274.871	2.02201
275.047	1.97969
275.223	1.93739
275.397	1.8951
275.572	1.85282
275.745	1.81055
275.919	1.76829
276.091	1.72605
276.264	1.6838
276.436	1.64157
276.608	1.59934
276.78	1.55711
276.951	1.51489
277.123	1.47267
277.294	1.43045
277.294	1.43045
277.555	1.38194
277.816	1.33344
278.077	1.28493
278.338	1.23642
278.338	1.23642
279.296	1.1219
279.806	1.06248
280.038	1.03905
280.166	1.0325
