Uv/Vis Spectrum: 2-methoxyquinoxaline-1-oxide
Formula: C9H8N2O2
CAS: 49765-53-9
Instrument: Hitachi EPS-3
Origin: INSTITUTE OF ENERGY PROBLEMS OF CHEMICAL PHYSICS, RAS
Wavelength (nm)	Logarithm epsilon
210.995	4.128
211.995	4.101
212.995	4.073
213.995	4.047
214.995	4.021
215.995	3.996
216.995	3.973
217.995	3.951
218.995	3.931
219.995	3.912
220.995	3.895
221.995	3.879
222.995	3.865
223.995	3.852
224.995	3.841
225.995	3.832
226.995	3.825
227.995	3.819
228.995	3.816
229.995	3.816
230.995	3.82
231.995	3.827
232.995	3.84
233.995	3.858
234.995	3.884
235.995	3.918
237.107	3.968
238.107	4.028
239.107	4.098
240.107	4.172
241.107	4.243
242.107	4.308
243.107	4.365
244.107	4.414
245.107	4.454
246.107	4.489
247.107	4.522
248.054	4.56
248.81	4.575
249.566	4.571
250.322	4.538
250.63	4.516
250.988	4.489
251.729	4.43
252.729	4.35
253.729	4.269
254.729	4.19
255.729	4.117
256.729	4.049
257.729	3.987
258.729	3.931
259.729	3.879
260.729	3.829
261.729	3.781
262.729	3.733
263.729	3.683
264.729	3.631
265.729	3.577
266.729	3.522
267.729	3.47
268.803	3.426
269.803	3.384
270.803	3.345
271.803	3.312
272.803	3.287
273.803	3.272
274.803	3.268
275.803	3.274
276.803	3.288
277.803	3.31
278.803	3.336
279.803	3.364
280.803	3.389
281.803	3.407
282.828	3.441
283.584	3.469
283.845	3.481
284.845	3.508
285.845	3.534
286.845	3.559
287.845	3.584
288.845	3.607
289.845	3.629
290.845	3.649
291.845	3.669
292.845	3.688
293.845	3.705
294.845	3.722
295.845	3.738
296.845	3.752
297.845	3.766
298.845	3.779
299.845	3.792
300.845	3.803
301.845	3.815
302.845	3.825
303.845	3.836
304.845	3.846
305.845	3.856
306.845	3.866
307.845	3.876
308.845	3.886
309.845	3.896
310.845	3.906
311.845	3.916
312.845	3.927
313.845	3.938
314.845	3.949
315.845	3.96
316.845	3.971
317.845	3.983
318.845	3.994
319.845	4.005
320.845	4.016
321.845	4.027
322.845	4.037
323.845	4.046
324.579	4.054
325.579	4.059
326.579	4.066
327.579	4.075
328.579	4.085
329.579	4.096
330.579	4.105
331.579	4.113
332.579	4.119
333.579	4.121
334.579	4.119
335.579	4.114
336.579	4.105
337.579	4.092
338.579	4.078
339.66	4.062
340.66	4.046
341.66	4.032
342.66	4.02
343.66	4.01
344.66	4.002
345.66	3.996
346.66	3.992
347.66	3.989
348.66	3.989
349.66	3.993
350.31	3.995
350.94	4
351.716	4.002
352.716	4.004
353.716	4.006
354.716	4.008
355.716	4.009
356.716	4.01
357.716	4.008
358.716	4.005
359.716	4
360.716	3.993
361.716	3.984
362.716	3.973
363.716	3.96
364.716	3.945
365.716	3.929
366.716	3.912
367.716	3.893
368.716	3.874
369.716	3.854
370.716	3.834
371.716	3.814
372.716	3.793
373.716	3.772
374.716	3.752
375.716	3.73
376.716	3.708
