Uv/Vis Spectrum: (E,Z)-1,1'-(thiodi-2,1-ethenediyl)bis-benzene
Formula: C16H14S
CAS: 4973-48-2
Melting point: 95
Instrument: Pye Unicam SP 8000
Origin: INSTITUTE OF ENERGY PROBLEMS OF CHEMICAL PHYSICS, RAS
Wavelength (nm)	Logarithm epsilon
192.113	4.388
194.113	4.45
196.113	4.495
198.113	4.524
200.113	4.535
202.113	4.53
204.113	4.508
206.113	4.469
208.113	4.413
209.136	4.373
211.136	4.288
213.136	4.203
215.136	4.153
217.136	4.143
219.136	4.163
221.136	4.194
223.11	4.226
225.11	4.251
227.11	4.277
229.11	4.296
231.11	4.301
233.11	4.291
235.11	4.262
237.11	4.218
238.354	4.186
239.37	4.148
241.37	4.078
243.37	4.015
245.37	3.958
247.37	3.907
249.37	3.861
251.37	3.822
253.37	3.79
255.37	3.764
257.37	3.745
259.37	3.733
261.37	3.728
263.37	3.731
265.37	3.742
267.37	3.76
269.37	3.784
271.636	3.82
273.636	3.873
275.636	3.919
277.636	3.959
279.636	3.994
281.636	4.026
283.636	4.055
285.636	4.082
287.636	4.108
289.636	4.133
291.636	4.158
293.636	4.183
295.636	4.209
297.636	4.235
299.636	4.261
301.636	4.288
303.636	4.314
305.636	4.341
307.681	4.369
309.681	4.393
311.681	4.414
313.681	4.432
315.681	4.448
317.681	4.46
319.681	4.469
321.681	4.474
323.681	4.474
325.681	4.468
327.681	4.454
329.681	4.432
331.681	4.402
333.681	4.361
335.681	4.309
337.681	4.246
338.998	4.201
339.98	4.16
341.98	4.081
343.98	3.981
345.98	3.861
347.98	3.725
349.98	3.574
351.98	3.412
