Uv/Vis Spectrum: 4-Phenylcyclohexene
Formula: C12H14
CAS: 4994-16-5
Instrument: Spectrophotometer SF-4
Origin: INSTITUTE OF ENERGY PROBLEMS OF CHEMICAL PHYSICS, RAS
Wavelength (nm)	Logarithm epsilon
223.302	3.33415
223.391	3.32535
223.498	3.31636
223.615	3.30717
224.558	3.2765
225.002	3.25773
225.464	3.24074
225.944	3.22564
226.44	3.21258
226.951	3.20162
227.476	3.19284
228.013	3.18626
228.561	3.18187
229.119	3.17961
229.685	3.1794
230.258	3.18113
230.836	3.18465
231.419	3.18982
232.005	3.19645
232.593	3.20437
233.181	3.21341
233.768	3.22338
234.352	3.23411
234.933	3.24544
235.51	3.25722
236.079	3.26931
236.641	3.28159
237.195	3.29393
237.737	3.30624
238.269	3.31843
238.787	3.33041
239.291	3.34211
239.78	3.35346
240.251	3.36441
240.704	3.3749
241.138	3.38489
241.551	3.39433
241.941	3.40318
242.309	3.41141
242.651	3.41898
242.651	3.41898
244.502	3.43237
245.806	3.44178
246.747	3.44892
247.507	3.45531
248.266	3.46239
249.208	3.47151
249.208	3.47151
250.282	3.47523
251.302	3.47877
252.275	3.48244
253.211	3.48654
254.118	3.49136
255.004	3.49715
255.878	3.50418
256.748	3.51267
257.623	3.52281
257.623	3.52281
259.127	3.52547
260.393	3.52749
261.45	3.52872
263.035	3.52808
263.615	3.52587
264.089	3.52213
264.481	3.51665
264.818	3.50917
265.126	3.49942
265.43	3.48703
265.757	3.47159
266.133	3.45256
266.133	3.45256
267.217	3.45478
267.928	3.4609
268.393	3.46961
268.74	3.47965
269.098	3.48983
269.594	3.49909
270.355	3.50643
270.355	3.50643
270.6	3.50192
270.843	3.49505
271.083	3.48596
271.32	3.47472
271.553	3.46142
271.781	3.44612
272.005	3.42889
272.222	3.40977
272.433	3.38884
272.637	3.36617
272.833	3.34183
273.021	3.31596
273.2	3.28871
273.369	3.2603
273.528	3.23103
273.676	3.20129
273.812	3.17162
273.937	3.14267
274.048	3.11529
274.146	3.09051
274.23	3.06948
