Uv/Vis Spectrum: 3-Pyridinecarboxaldehyde
Formula: C6H5NO
CAS: 500-22-1
Boiling point: 89.5(14)
Instrument: Spectrophotometer Jobin ""Maroc
Origin: INSTITUTE OF ENERGY PROBLEMS OF CHEMICAL PHYSICS, RAS
Wavelength (nm)	Logarithm epsilon
220.823	3.32608
221.352	3.33144
221.607	3.34119
221.889	3.34602
222.394	3.36121
222.684	3.37647
222.939	3.38683
223.194	3.39719
223.479	3.40693
223.738	3.4222
223.997	3.43747
224.252	3.44783
224.545	3.468
224.804	3.48327
225.078	3.51879
225.394	3.56965
225.672	3.61008
225.958	3.66094
226.274	3.71241
226.537	3.73259
226.807	3.76321
227.073	3.78829
227.363	3.80355
227.618	3.81391
227.884	3.839
228.174	3.85426
228.429	3.86462
228.683	3.87437
228.969	3.88472
229.224	3.89508
229.479	3.90483
230.007	3.90958
230.259	3.91503
230.51	3.91987
231.038	3.92462
231.568	3.92998
232.066	3.93475
233.367	3.93927
234.379	3.92915
234.621	3.92355
234.899	3.92347
235.66	3.90789
235.904	3.90291
236.147	3.89793
236.394	3.89785
236.911	3.88726
237.155	3.88228
237.429	3.87729
237.912	3.8618
238.182	3.85128
238.425	3.8463
238.672	3.84622
238.946	3.84062
239.672	3.82014
239.943	3.81024
240.186	3.80464
240.425	3.79475
240.696	3.78423
240.935	3.77373
241.175	3.76383
241.445	3.75332
241.927	3.73783
242.198	3.72792
242.681	3.71244
242.916	3.69702
243.186	3.6865
243.669	3.67101
243.94	3.66111
244.418	3.64071
244.689	3.63019
244.928	3.61969
245.168	3.60979
245.438	3.59928
245.681	3.59429
245.92	3.58379
246.156	3.56837
246.43	3.56338
246.669	3.55287
246.901	3.53254
247.658	3.51206
247.928	3.50154
248.175	3.50147
248.936	3.4859
249.179	3.48091
250.176	3.44992
250.693	3.43995
251.462	3.43419
252.23	3.42905
253.253	3.43366
254.802	3.43872
255.3	3.44348
256.601	3.44801
257.13	3.45337
257.875	3.45806
258.157	3.46289
259.18	3.4675
259.709	3.47286
259.96	3.4777
260.489	3.48245
261.234	3.48776
262.01	3.49244
262.539	3.49719
262.79	3.50264
263.844	3.50724
264.342	3.512
266.138	3.51637
268.451	3.51077
269.466	3.50556
270.235	3.50042
270.756	3.49474
271.521	3.48469
272.285	3.47403
272.776	3.46897
273.049	3.46336
273.296	3.46329
274.814	3.42723
275.297	3.41174
275.571	3.40675
275.81	3.39624
276.057	3.39617
276.332	3.39118
276.571	3.38128
277.054	3.36579
277.328	3.36019
277.807	3.33979
278.077	3.32927
278.317	3.31938
278.556	3.30887
279.066	3.28846
279.301	3.27304
279.572	3.26314
279.807	3.24772
280.047	3.23722
280.282	3.2218
280.552	3.21129
280.788	3.19648
281.294	3.17055
281.529	3.15513
281.765	3.13972
282.031	3.12429
282.26	3.09905
282.495	3.08364
282.727	3.06331
282.993	3.04788
283.225	3.02694
283.453	3.00171
283.723	2.99119
283.951	2.96596
284.179	2.9401
284.438	2.91486
284.665	2.88901
284.897	2.86868
285.167	2.85817
285.388	2.8225
285.616	2.79726
285.843	2.77141
286.102	2.74616
286.334	2.72523
286.566	2.7049
286.828	2.68456
287.064	2.66915
287.296	2.64882
287.554	2.62296
287.786	2.60263
288.018	2.58231
288.276	2.55645
288.512	2.54103
288.748	2.52561
288.976	2.50038
289.242	2.48495
289.474	2.46462
289.709	2.44921
289.972	2.42887
290.208	2.41346
290.435	2.38761
290.706	2.3777
290.937	2.35676
291.169	2.33644
291.409	2.32654
291.671	2.30559
291.906	2.29018
292.142	2.27476
292.409	2.25995
292.64	2.23901
292.88	2.22911
293.142	2.20817
293.382	2.19827
293.614	2.17794
293.872	2.15209
294.108	2.13667
294.34	2.11634
294.575	2.10093
294.842	2.0855
295.317	2.06019
295.579	2.03924
295.819	2.02935
296.051	2.00902
296.321	1.9985
296.564	1.99352
296.8	1.9781
297.062	1.95715
297.541	1.93675
297.781	1.92686
298.047	1.91143
298.286	1.90093
298.522	1.88551
298.793	1.87561
299.028	1.86019
299.271	1.85459
299.541	1.84469
299.781	1.83419
300.021	1.82429
300.291	1.81378
301.005	1.77796
301.522	1.76737
301.769	1.7673
302.032	1.74696
302.271	1.73645
302.515	1.73147
302.789	1.72648
303.272	1.71099
303.511	1.70048
303.785	1.69549
304.268	1.68
304.542	1.675
305.025	1.65951
305.299	1.65391
305.542	1.64892
305.786	1.64394
306.06	1.63895
306.786	1.61786
307.06	1.61287
307.307	1.61279
307.55	1.60781
307.824	1.6022
308.311	1.59224
308.589	1.59215
308.832	1.58656
309.35	1.57658
310.083	1.56593
310.361	1.56584
310.852	1.56079
311.126	1.55579
311.89	1.54513
312.385	1.54498
312.902	1.53439
314.439	1.52411
316.466	1.50816
317.76	1.50287
318.25	1.4972
319.018	1.49206
319.543	1.4919
320.03	1.48132
321.073	1.47119
321.841	1.46543
322.331	1.46037
323.1	1.45524
323.617	1.44465
324.108	1.43959
324.633	1.43943
325.397	1.42877
325.884	1.4188
326.162	1.41872
326.652	1.41305
327.695	1.40291
327.938	1.39732
328.428	1.39226
328.702	1.38727
329.193	1.38221
329.707	1.36671
329.95	1.36111
330.471	1.35605
330.718	1.35597
332.243	1.32974
333.765	1.2992
334.012	1.29913
334.255	1.29354
335.772	1.25748
336.05	1.2574
336.811	1.24182
337.055	1.23684
337.815	1.22127
338.298	1.20578
338.572	1.20078
338.819	1.20071
340.337	1.16465
340.58	1.15906
341.093	1.14356
341.333	1.13366
341.577	1.12868
341.85	1.12307
342.098	1.123
342.337	1.1131
342.851	1.0976
343.094	1.09201
343.364	1.08211
343.607	1.07651
343.851	1.07153
344.09	1.06163
344.847	1.04053
345.117	1.03063
345.6	1.01514
345.874	1.01015
346.117	1.00455
346.604	0.994585
347.121	0.983996
347.874	0.95799
348.118	0.953005
348.631	0.937508
349.627	0.906518
349.867	0.896625
350.13	0.876287
350.373	0.870691
350.62	0.870615
350.894	0.865625
351.133	0.855119
351.643	0.834707
352.122	0.814308
352.396	0.809317
352.632	0.793895
352.875	0.788303
353.115	0.778405
353.377	0.758071
353.616	0.747567
353.856	0.737057
354.126	0.727159
354.362	0.71174
354.601	0.701231
355.111	0.680825
355.343	0.660496
355.582	0.649987
355.845	0.629654
356.088	0.624674
356.32	0.603729
356.586	0.588305
356.822	0.573498
357.058	0.558084
357.328	0.547566
357.559	0.527243
357.791	0.506911
358.061	0.496404
358.293	0.476078
