Uv/Vis Spectrum: Diphenylacetylene
Formula: C14H10
CAS: 501-65-5
Melting point: 62.5
Boiling point: 300
Instrument: Perkin Elmer 350
Origin: INSTITUTE OF ENERGY PROBLEMS OF CHEMICAL PHYSICS, RAS
Wavelength (nm)	Logarithm epsilon
300.331	3.56196
300.154	3.60863
299.99	3.65115
299.839	3.68995
299.698	3.72547
299.567	3.75814
299.443	3.7884
299.326	3.81667
299.213	3.8434
299.104	3.86902
298.997	3.89395
298.889	3.91864
298.781	3.94352
298.67	3.96901
298.555	3.99557
298.435	4.02361
298.308	4.05357
298.172	4.08589
298.026	4.12099
297.869	4.15932
297.699	4.20131
297.515	4.24739
297.515	4.24739
297	4.33362
296.67	4.38708
296.454	4.41729
296.286	4.43381
296.097	4.44617
296.097	4.44617
295.863	4.44859
295.574	4.45
294.985	4.45158
294.985	4.45158
294.867	4.44954
294.739	4.44745
294.606	4.44524
294.606	4.44524
293.953	4.40405
293.22	4.36253
292.254	4.32121
290.906	4.28063
290.906	4.28063
290.603	4.28039
290.302	4.28008
290.001	4.27967
290.001	4.27967
288.635	4.30453
287.545	4.33282
286.325	4.35428
286.325	4.35428
285.99	4.35403
285.651	4.35373
285.304	4.35332
285.304	4.35332
284.453	4.33496
283.373	4.31962
281.703	4.32272
281.703	4.32272
280.627	4.35794
279.955	4.39324
279.559	4.42881
279.317	4.46483
279.106	4.50146
279.106	4.50146
278.91	4.50859
278.714	4.51567
278.519	4.52264
278.519	4.52264
278.281	4.52341
278.04	4.52412
277.789	4.52473
277.789	4.52473
277.606	4.52295
277.414	4.52118
277.218	4.51941
277.218	4.51941
276.288	4.47738
275.627	4.45021
274.672	4.41463
274.672	4.41463
274.179	4.40882
273.445	4.4028
272.603	4.39769
272.603	4.39769
270.197	4.38481
268.723	4.36201
267.008	4.33312
267.008	4.33312
265.814	4.33755
264.868	4.34922
263.873	4.36213
263.873	4.36213
263.051	4.35503
262.634	4.34263
262.027	4.3294
262.027	4.3294
260.635	4.28716
258.927	4.24858
256.837	4.21082
256.837	4.21082
256.664	4.20451
255.919	4.1846
254.263	4.13663
254.263	4.13663
253.23	4.12359
251.95	4.10933
250.659	4.10074
250.659	4.10074
250.116	4.0904
248.55	4.06458
245.467	4.012
245.467	4.012
245.216	4.00516
244.878	3.99929
244.375	3.99502
244.375	3.99502
244.375	3.99367
244.375	3.99221
244.374	3.99069
244.374	3.99069
243.781	3.98253
242.806	3.96659
241.92	3.95268
241.92	3.95268
240.835	3.94445
239.978	3.94174
238.604	3.94354
238.604	3.94354
236.362	3.9492
234.841	3.93877
232.939	3.91858
232.939	3.91858
231.447	3.92273
229.922	3.93158
228.425	3.94015
228.425	3.94015
227.22	3.9585
225.991	3.98405
225.434	4.00947
225.434	4.00947
225.331	4.0117
225.224	4.01382
225.112	4.01587
225.112	4.01587
224.399	4.05181
223.746	4.08794
223.171	4.1243
222.695	4.16091
222.336	4.19778
222.336	4.19778
221.982	4.22358
221.546	4.24259
220.637	4.26063
220.637	4.26063
219.767	4.2635
218.959	4.26812
218.087	4.2749
218.087	4.2749
216.725	4.30171
215.292	4.30946
213.833	4.31225
212.391	4.32417
212.391	4.32417
211.261	4.32754
210.673	4.33012
210.116	4.33411
