Uv/Vis Spectrum: Hydrocortisone
Formula: C21H30O5
CAS: 50-23-7
Melting point: 219
Instrument: Beckman DU
Origin: INSTITUTE OF ENERGY PROBLEMS OF CHEMICAL PHYSICS, RAS
Wavelength (nm)	Logarithm epsilon
204.74	3.613
206.1	3.624
207.62	3.63
208.98	3.648
210.33	3.661
211.69	3.678
212.88	3.695
214.06	3.716
215.25	3.733
216.26	3.753
217.45	3.774
218.47	3.798
219.48	3.818
220.5	3.839
221.51	3.859
222.53	3.883
223.55	3.907
224.39	3.934
225.41	3.958
226.26	3.986
227.27	4.01
228.29	4.033
229.31	4.057
230.32	4.078
231.51	4.098
232.53	4.122
233.71	4.139
234.9	4.156
236.08	4.174
237.61	4.184
238.96	4.197
240.32	4.208
241.84	4.211
243.37	4.211
244.89	4.211
246.42	4.204
247.77	4.191
248.96	4.174
250.14	4.153
251.16	4.129
252.18	4.109
253.02	4.085
253.87	4.061
254.72	4.037
255.57	4.01
256.41	3.986
257.09	3.958
257.77	3.931
258.45	3.904
258.95	3.876
259.63	3.849
260.14	3.822
260.65	3.794
261.16	3.767
261.66	3.74
262.17	3.712
262.68	3.682
263.02	3.651
263.53	3.624
264.04	3.596
264.38	3.566
264.88	3.538
265.39	3.508
265.73	3.477
266.24	3.449
266.75	3.419
267.09	3.388
267.42	3.357
267.93	3.33
268.27	3.299
268.61	3.268
268.95	3.238
269.46	3.207
269.8	3.176
270.13	3.146
270.47	3.115
270.81	3.084
271.15	3.053
271.49	3.023
271.83	2.992
272.17	2.961
272.51	2.93
272.85	2.9
273.18	2.869
273.52	2.838
274.03	2.807
274.2	2.777
274.54	2.746
275.05	2.719
275.39	2.688
275.73	2.657
276.06	2.626
276.57	2.599
276.91	2.568
277.42	2.538
277.76	2.507
278.27	2.48
278.61	2.449
279.11	2.418
279.45	2.387
279.96	2.36
280.47	2.333
280.98	2.302
281.82	2.275
282.67	2.247
283.52	2.223
284.53	2.203
285.89	2.189
287.41	2.179
288.94	2.179
290.46	2.176
291.99	2.169
293.51	2.165
295.04	2.165
296.56	2.162
298.09	2.152
299.61	2.148
301.14	2.141
302.66	2.131
304.19	2.124
305.54	2.114
306.9	2.097
308.25	2.083
309.61	2.07
310.96	2.056
312.32	2.042
313.67	2.029
315.03	2.012
316.38	1.995
317.57	1.977
318.75	1.96
319.94	1.943
321.13	1.923
322.31	1.902
323.67	1.885
324.85	1.865
326.04	1.848
327.06	1.827
328.07	1.807
329.26	1.786
330.44	1.766
331.46	1.745
332.48	1.721
333.66	1.701
334.68	1.677
335.53	1.653
336.54	1.633
337.39	1.609
338.41	1.585
339.08	1.557
340.1	1.533
340.78	1.506
341.79	1.482
342.47	1.455
343.32	1.428
344	1.4
344.67	1.373
345.35	1.346
346.2	1.318
346.71	1.291
347.55	1.264
348.23	1.236
348.91	1.209
349.59	1.182
350.26	1.154
350.94	1.127
351.62	1.1
352.3	1.072
352.81	1.045
353.48	1.018
354.16	0.99
354.67	0.963
355.35	0.936
356.02	0.908
356.36	0.878
357.04	0.85
357.55	0.823
358.06	0.796
358.57	0.768
359.24	0.741
359.75	0.714
