Uv/Vis Spectrum: Citronellic acid
Formula: C10H18O2
CAS: 502-47-6
Boiling point: 143/ 10 mm
Instrument: Beckman DU
Origin: INSTITUTE OF ENERGY PROBLEMS OF CHEMICAL PHYSICS, RAS
Wavelength (nm)	Logarithm epsilon
214.03	2.692
214.35	2.685
214.66	2.679
214.97	2.673
215.28	2.647
215.59	2.621
215.9	2.608
216.22	2.589
216.53	2.57
216.84	2.557
217.15	2.538
217.46	2.518
217.78	2.493
218.09	2.474
218.4	2.435
218.71	2.429
219.02	2.409
219.33	2.403
219.65	2.396
219.96	2.384
220.27	2.371
220.58	2.371
220.89	2.364
221.21	2.364
221.52	2.345
221.83	2.345
222.14	2.345
222.45	2.345
222.77	2.345
223.08	2.345
223.39	2.339
223.7	2.339
224.01	2.339
224.32	2.339
224.64	2.339
224.95	2.339
225.26	2.339
225.57	2.339
225.88	2.339
226.2	2.339
226.51	2.339
226.82	2.339
227.13	2.339
227.44	2.332
227.75	2.326
228.07	2.319
228.38	2.313
228.69	2.313
229	2.313
229.31	2.313
229.63	2.313
229.94	2.307
230.25	2.3
230.56	2.294
230.87	2.294
231.19	2.281
231.5	2.281
231.81	2.281
232.12	2.274
232.43	2.268
232.74	2.262
233.06	2.255
233.37	2.249
233.68	2.249
233.99	2.242
234.3	2.23
234.62	2.223
234.93	2.223
235.24	2.217
235.55	2.197
235.86	2.191
236.17	2.185
236.49	2.178
236.8	2.172
237.11	2.165
237.42	2.159
237.73	2.152
238.05	2.146
238.36	2.133
238.67	2.12
238.98	2.114
239.29	2.095
239.6	2.088
239.92	2.082
240.23	2.056
240.54	2.03
240.85	2.005
241.16	1.979
241.48	1.966
241.79	1.947
242.1	1.928
242.41	1.915
242.72	1.896
243.04	1.876
243.35	1.851
243.66	1.838
243.97	1.819
244.28	1.793
244.59	1.78
244.91	1.761
245.22	1.748
245.53	1.735
245.84	1.722
246.15	1.665
246.47	1.639
246.78	1.626
247.09	1.6
247.4	1.575
247.71	1.549
248.02	1.536
248.34	1.51
248.65	1.485
248.96	1.459
249.27	1.446
249.58	1.401
249.9	1.382
250.21	1.363
250.52	1.337
250.83	1.311
251.14	1.292
251.46	1.266
251.77	1.234
252.08	1.209
252.39	1.183
252.7	1.151
253.01	1.132
253.33	1.08
253.64	1.016
253.95	0.971
254.26	0.939
254.57	0.9
254.89	0.849
255.2	0.817
255.51	0.778
255.82	0.746
256.13	0.695
256.44	0.663
256.76	0.631
257.07	0.605
257.38	0.579
257.69	0.547
258	0.535
258.32	0.515
258.63	0.49
258.94	0.477
259.25	0.451
259.56	0.438
259.88	0.425
260.19	0.406
260.5	0.393
260.81	0.387
261.12	0.368
261.43	0.361
261.75	0.348
262.06	0.335
262.37	0.329
262.68	0.316
262.99	0.303
263.31	0.297
263.62	0.297
263.93	0.284
264.24	0.271
264.55	0.271
264.86	0.265
265.18	0.258
265.49	0.246
265.8	0.246
266.11	0.239
266.42	0.239
266.74	0.233
267.05	0.233
267.36	0.226
267.67	0.22
267.98	0.213
268.3	0.213
268.61	0.213
268.92	0.213
269.23	0.207
269.54	0.207
269.85	0.207
270.17	0.201
270.48	0.194
270.79	0.188
271.1	0.181
271.41	0.181
271.73	0.181
272.04	0.169
272.35	0.169
272.66	0.169
272.97	0.169
273.28	0.169
273.6	0.156
273.91	0.149
274.22	0.149
274.53	0.149
274.84	0.143
275.16	0.136
275.47	0.124
275.78	0.124
276.09	0.117
276.4	0.117
276.72	0.104
277.03	0.098
277.34	0.091
277.65	0.085
277.96	0.085
278.27	0.079
278.59	0.066
278.9	0.059
279.21	0.053
279.52	0.047
279.83	0.034
280.15	0.027
280.46	0.027
280.77	0.014
281.08	0.002
281.39	-0.005
281.7	-0.005
282.02	-0.018
282.33	-0.03
282.64	-0.037
282.95	-0.05
283.26	-0.063
283.58	-0.063
283.89	-0.075
284.2	-0.088
284.51	-0.095
284.82	-0.101
285.14	-0.114
285.45	-0.127
285.76	-0.133
286.07	-0.146
286.38	-0.159
286.69	-0.159
287.01	-0.178
287.32	-0.185
287.63	-0.191
287.94	-0.204
288.25	-0.217
288.57	-0.223
288.88	-0.236
289.19	-0.249
289.5	-0.249
289.81	-0.255
290.12	-0.262
290.44	-0.274
290.75	-0.287
291.06	-0.287
291.37	-0.3
291.68	-0.307
292	-0.319
292.31	-0.332
292.62	-0.339
292.93	-0.352
293.24	-0.364
293.56	-0.371
293.87	-0.377
294.18	-0.377
294.49	-0.39
294.8	-0.396
295.11	-0.403
295.43	-0.403
295.74	-0.409
296.05	-0.422
296.36	-0.429
296.67	-0.435
296.99	-0.435
297.3	-0.441
297.61	-0.441
297.92	-0.441
298.23	-0.461
298.54	-0.467
298.86	-0.474
299.17	-0.474
299.48	-0.486
299.79	-0.493
300.1	-0.493
300.42	-0.499
300.73	-0.499
301.04	-0.506
301.35	-0.518
301.66	-0.525
301.98	-0.525
302.29	-0.531
302.6	-0.531
302.91	-0.538
303.22	-0.551
303.53	-0.557
303.85	-0.557
304.16	-0.557
304.47	-0.563
304.78	-0.57
305.09	-0.576
305.41	-0.583
305.72	-0.583
306.03	-0.589
306.34	-0.596
306.65	-0.602
306.96	-0.602
307.28	-0.615
307.59	-0.615
307.9	-0.621
308.21	-0.621
308.52	-0.628
308.84	-0.634
309.15	-0.64
309.46	-0.647
309.77	-0.647
310.08	-0.653
310.4	-0.653
310.71	-0.66
311.02	-0.666
311.33	-0.673
