Uv/Vis Spectrum: Cyclooctanone
Formula: C8H14O
CAS: 502-49-8
Melting point: 29
Boiling point: 196
Instrument: Bausch and Lomb 505 or Beckman DU
Origin: INSTITUTE OF ENERGY PROBLEMS OF CHEMICAL PHYSICS, RAS
Wavelength (nm)	Logarithm epsilon
223.185	4.60099
223.497	4.59915
223.991	4.59416
224.863	4.58652
224.863	4.58652
225.197	4.58278
225.958	4.57584
227.048	4.56625
228.37	4.5546
229.826	4.54146
231.32	4.5275
232.753	4.51346
234.029	4.50019
235.05	4.48864
235.05	4.48864
235.645	4.48483
236.771	4.47672
238.903	4.4636
238.903	4.4636
239.91	4.45505
241.054	4.4501
241.979	4.43496
241.979	4.43496
243.43	4.43324
244.882	4.4313
246.334	4.42924
246.334	4.42924
247.594	4.43385
249.073	4.44022
251.123	4.4472
251.123	4.4472
252.172	4.45696
253.212	4.46821
254.24	4.48065
255.257	4.49404
256.26	4.5081
257.25	4.52262
258.225	4.5374
259.183	4.55224
260.123	4.56701
261.046	4.58155
261.948	4.59574
262.83	4.60949
263.69	4.6227
263.69	4.6227
264.547	4.63866
265.405	4.65404
266.263	4.66889
267.121	4.68322
267.978	4.69706
268.836	4.71044
268.836	4.71044
269.576	4.72352
270.332	4.73585
271.103	4.74752
271.887	4.7586
272.684	4.76917
273.494	4.77928
274.315	4.78898
275.147	4.79833
275.989	4.80736
276.84	4.81613
277.699	4.82466
278.566	4.833
279.44	4.84118
280.32	4.84923
281.205	4.85718
282.095	4.86505
282.095	4.86505
283.075	4.86911
284.06	4.87352
285.053	4.87802
286.055	4.88235
287.068	4.88627
288.096	4.88955
289.139	4.89195
290.201	4.89326
291.282	4.89323
292.387	4.89163
292.387	4.89163
293.154	4.88507
294.103	4.87897
295.184	4.87336
296.351	4.8683
297.555	4.86385
298.749	4.86006
299.885	4.85697
300.914	4.85464
300.914	4.85464
301.45	4.85009
301.933	4.84438
302.775	4.83244
302.775	4.83244
303.185	4.82382
303.648	4.81363
304.16	4.80213
304.72	4.78961
305.325	4.77638
305.971	4.76279
306.657	4.74926
307.38	4.73622
308.136	4.7242
308.923	4.71373
309.739	4.70542
310.58	4.69987
310.58	4.69987
311.437	4.68984
312.253	4.6787
313.032	4.66646
313.779	4.65313
314.496	4.63871
315.188	4.62321
315.857	4.60662
316.509	4.58895
317.145	4.57021
317.77	4.55039
318.388	4.52952
319.002	4.50761
319.615	4.48469
320.232	4.4608
320.232	4.4608
320.983	4.4468
321.611	4.42678
322.245	4.40144
322.245	4.40144
323.316	4.38575
324.295	4.36133
325.313	4.33714
326.222	4.34419
326.238	4.34044
326.257	4.3364
326.284	4.33217
326.5	4.32408
326.5	4.32408
326.775	4.30897
327.376	4.28387
328.161	4.24672
328.161	4.24672
328.589	4.23796
329.068	4.22539
329.346	4.20395
329.346	4.20395
330.083	4.1816
330.824	4.15783
331.572	4.13225
331.923	4.11924
332.079	4.11511
332.243	4.11094
332.41	4.10672
332.894	4.08427
333.815	4.04625
334.74	4.00429
335.672	3.95718
335.672	3.95718
336.661	3.933
337.816	3.88956
338.744	3.82766
