Uv/Vis Spectrum: 4,4'-DDT
Formula: C14H9Cl5
CAS: 50-29-3
Melting point: 108.5
Boiling point: 260; 186(0.05)
Instrument: Zeiss VSU-1
Origin: INSTITUTE OF ENERGY PROBLEMS OF CHEMICAL PHYSICS, RAS
Wavelength (nm)	Logarithm epsilon
204.901	4.142
205.412	4.14836
205.76	4.15192
206.086	4.15508
206.598	4.16184
206.945	4.165
207.454	4.16851
207.618	4.17171
207.965	4.17487
208.475	4.17838
208.801	4.18154
209.31	4.18464
209.657	4.1882
210.004	4.19135
210.675	4.19441
211.529	4.19782
212.2	4.20087
212.709	4.20397
214.049	4.20723
217.435	4.20947
218.445	4.20591
218.949	4.20209
219.615	4.19864
220.119	4.19523
220.623	4.19141
221.127	4.188
221.79	4.18088
222.132	4.17752
222.636	4.17411
223.302	4.17025
224.475	4.16663
225.49	4.16958
226	4.1731
226.508	4.1762
226.855	4.17935
227.02	4.18297
227.367	4.18612
227.714	4.18927
230.262	4.23614
230.446	4.23934
230.611	4.24296
230.778	4.24942
230.963	4.25303
231.128	4.25624
231.475	4.25939
231.639	4.26301
231.986	4.26616
232.151	4.26937
232.498	4.27293
232.662	4.27613
233.009	4.27929
233.336	4.28285
233.683	4.28601
234.03	4.28956
234.357	4.29272
235.048	4.29577
235.719	4.29923
236.547	4.29532
237.051	4.29191
237.393	4.28855
237.735	4.28478
237.897	4.28474
238.396	4.27441
238.556	4.2711
238.735	4.26738
238.895	4.26408
239.057	4.26403
239.234	4.25705
239.394	4.25375
239.551	4.24678
239.731	4.24347
239.885	4.23324
240.042	4.22627
240.22	4.21971
240.376	4.21274
240.529	4.19925
240.706	4.19228
240.858	4.1788
241.01	4.16491
241.182	4.15142
241.334	4.13753
241.486	4.12405
241.635	4.1069
241.807	4.09342
241.957	4.07627
242.106	4.05953
242.281	4.0493
242.428	4.0289
242.577	4.01175
242.75	3.99826
242.899	3.98112
243.048	3.96397
243.218	3.94682
243.37	3.93334
243.519	3.9162
243.689	3.89945
243.838	3.88231
243.988	3.86516
244.16	3.85167
244.309	3.83453
244.458	3.81738
244.628	3.80064
244.78	3.78675
244.93	3.77001
245.099	3.75286
245.251	3.73938
245.401	3.72223
245.57	3.70508
245.72	3.68793
245.872	3.67445
246.044	3.66096
246.193	3.64382
246.343	3.62667
246.512	3.60993
246.662	3.59278
246.811	3.57564
246.958	3.55524
247.13	3.54175
247.28	3.5246
247.429	3.50746
247.599	3.49071
247.751	3.47682
247.9	3.46008
248.07	3.44293
248.217	3.42253
248.371	3.41231
248.538	3.3919
248.678	3.36132
248.837	3.35761
249.007	3.34086
249.156	3.32372
249.305	3.30657
249.473	3.28616
249.625	3.27268
249.769	3.24862
249.939	3.23187
250.088	3.21473
250.235	3.19433
250.402	3.17392
250.554	3.16044
250.698	3.13637
250.863	3.11271
251.007	3.08864
251.157	3.0719
251.326	3.05475
251.476	3.0376
251.628	3.02412
251.797	3.00697
251.949	2.99349
252.101	2.98001
252.256	2.96937
252.43	2.95914
252.585	2.94892
252.742	2.94236
252.917	2.93212
253.233	2.92185
253.41	2.91487
253.727	2.9046
253.904	2.89763
254.221	2.88735
254.401	2.88404
254.897	2.87045
255.056	2.86674
255.555	2.85641
255.717	2.85636
255.897	2.85305
256.219	2.8497
256.558	2.84267
257.062	2.83927
257.404	2.8355
257.726	2.83214
258.392	2.82869
260.76	2.82431
261.608	2.82079
261.93	2.81703
262.434	2.81362
262.938	2.81021
263.953	2.81317
264.462	2.81627
264.627	2.81989
264.812	2.82309
264.979	2.82996
265.144	2.83317
265.329	2.83677
265.837	2.83988
266.164	2.84304
268.023	2.83596
268.368	2.83586
269.185	2.81851
269.348	2.81846
269.525	2.81149
269.841	2.80121
270.021	2.7979
270.176	2.78768
270.335	2.78396
270.512	2.7774
270.669	2.77043
270.824	2.7602
271.001	2.75323
271.158	2.74666
271.495	2.73638
271.65	2.72616
271.807	2.71919
271.986	2.71588
272.3	2.70194
272.478	2.69537
272.635	2.6884
272.791	2.68144
272.969	2.67487
273.126	2.6679
273.283	2.66093
273.46	2.65395
273.62	2.65065
273.777	2.64368
273.954	2.63711
274.113	2.6334
274.448	2.61986
274.608	2.61656
274.767	2.61285
274.929	2.6128
275.613	2.60608
276.436	2.59565
276.611	2.58542
276.765	2.57519
276.914	2.55805
277.089	2.54781
277.241	2.53433
277.391	2.51719
277.563	2.50329
277.715	2.48981
277.867	2.47633
278.036	2.45918
278.186	2.44203
278.338	2.42855
278.505	2.40814
278.657	2.39466
278.803	2.37385
278.971	2.35344
279.12	2.3367
279.272	2.32282
279.442	2.30607
279.589	2.28567
279.738	2.26852
279.903	2.24486
280.052	2.22771
280.201	2.21057
280.351	2.19342
280.515	2.16976
280.665	2.15261
280.809	2.12895
280.976	2.10855
281.126	2.0914
281.283	2.08443
281.432	2.04041
281.581	2.02327
281.728	2.00287
281.895	1.98246
282.042	1.96206
282.189	1.94166
282.356	1.92125
282.501	1.89759
282.648	1.87719
282.815	1.85678
282.959	1.83271
283.106	1.81231
283.271	1.78865
283.417	1.76825
283.564	1.74784
283.729	1.72377
283.871	1.69686
284.018	1.67646
284.18	1.64913
284.327	1.62872
284.473	1.60832
284.635	1.58099
284.782	1.56059
284.924	1.53327
285.089	1.50961
285.236	1.4892
285.377	1.46188
285.522	1.43822
285.686	1.41415
285.831	1.39049
285.978	1.37009
286.134	1.33584
286.276	1.30893
286.421	1.28486
286.58	1.25428
286.719	1.2237
286.864	1.20004
287.023	1.16946
287.16	1.13522
287.31	1.11848
287.464	1.08097
287.613	1.06383
287.752	1.03325
287.91	0.999409
288.049	0.968828
288.183	0.931331
288.34	0.897083
288.487	0.87668
288.646	0.873373
