Uv/Vis Spectrum: Trimethylene oxide
Formula: C3H6O
CAS: 503-30-0
Melting point: -97
Boiling point: 47.6
Instrument: Hilger fluorite prism vacuum spectrograph
Origin: INSTITUTE OF ENERGY PROBLEMS OF CHEMICAL PHYSICS, RAS
Wavelength (nm)	Logarithm epsilon
199.701	1.98676
199.57	2.01124
199.434	2.03558
199.292	2.05982
199.147	2.08395
198.998	2.10799
198.846	2.13196
198.691	2.15586
198.534	2.1797
198.374	2.20349
198.214	2.22726
198.052	2.251
197.889	2.27473
197.726	2.29846
197.563	2.3222
197.401	2.34597
197.24	2.36977
197.081	2.39362
197.081	2.39362
196.946	2.41803
196.81	2.44241
196.675	2.46677
196.54	2.49111
196.405	2.51543
196.269	2.53974
196.134	2.56404
195.999	2.58834
195.863	2.61262
195.727	2.63691
195.727	2.63691
195.453	2.66171
195.18	2.68652
194.907	2.71132
194.634	2.73613
194.361	2.76093
194.088	2.78574
194.088	2.78574
193.801	2.80425
193.513	2.82259
193.224	2.8408
192.936	2.85891
192.648	2.87695
192.36	2.89495
192.074	2.91293
191.79	2.93093
191.508	2.94898
191.228	2.96712
190.951	2.98536
190.678	3.00373
190.408	3.02228
190.142	3.04103
189.881	3.06
189.624	3.07924
189.373	3.09876
189.128	3.1186
189.128	3.1186
188.926	3.14431
188.738	3.16989
188.561	3.19541
188.395	3.22093
188.241	3.2465
188.097	3.27219
187.963	3.29805
187.839	3.32414
187.839	3.32414
187.761	3.3242
187.683	3.32427
187.604	3.32434
187.604	3.32434
187.506	3.30661
187.396	3.2865
187.274	3.26467
187.137	3.24182
186.981	3.21862
186.806	3.19574
186.608	3.17387
186.386	3.15369
186.137	3.13587
185.859	3.12109
185.55	3.11003
185.208	3.10338
185.208	3.10338
184.802	3.11318
184.417	3.12469
183.989	3.1327
183.989	3.1327
183.748	3.10723
183.544	3.0799
183.364	3.05126
183.19	3.02189
183.19	3.02189
182.999	3.0046
182.795	2.98732
182.578	2.9702
182.35	2.95341
182.11	2.93709
181.86	2.92141
181.599	2.90651
181.328	2.89256
181.048	2.8797
180.759	2.8681
180.462	2.85791
180.158	2.84927
179.846	2.84236
179.528	2.83733
179.203	2.83432
178.873	2.8335
178.538	2.83502
178.198	2.83903
177.854	2.84569
177.506	2.85517
177.506	2.85517
177.362	2.86485
177.217	2.87444
177.073	2.88382
177.073	2.88382
176.937	2.90659
176.814	2.9295
176.701	2.95254
176.598	2.97568
176.505	2.99893
176.419	3.02225
176.34	3.04565
176.267	3.06911
176.198	3.09262
176.134	3.11616
176.072	3.13972
176.013	3.16329
175.955	3.18685
175.896	3.2104
175.837	3.23391
175.775	3.25738
175.711	3.2808
175.642	3.30414
175.569	3.32741
175.49	3.35058
175.404	3.37364
175.31	3.39658
175.208	3.41939
175.096	3.44205
174.974	3.46455
174.974	3.46455
174.893	3.46917
174.811	3.47369
174.725	3.478
174.725	3.478
174.662	3.47488
174.595	3.47176
174.527	3.46864
174.527	3.46864
174.472	3.45581
174.413	3.43912
174.349	3.41915
174.28	3.39648
174.205	3.3717
174.124	3.34539
174.036	3.31812
173.942	3.29048
173.841	3.26305
173.731	3.23641
173.614	3.21114
173.489	3.18782
173.354	3.16704
173.211	3.14936
173.058	3.13539
172.895	3.12568
172.722	3.12083
172.722	3.12083
172.528	3.14229
172.348	3.16452
172.18	3.18729
172.018	3.21038
171.859	3.23357
171.698	3.25662
171.53	3.27933
171.353	3.30145
171.162	3.32278
171.162	3.32278
171.083	3.32421
171	3.32554
170.916	3.32668
170.916	3.32668
170.863	3.3225
170.809	3.31812
170.751	3.31365
170.751	3.31365
170.673	3.29645
170.579	3.27587
170.471	3.25263
170.349	3.22745
170.213	3.20105
170.063	3.17415
169.902	3.14749
169.728	3.12177
169.543	3.09772
169.348	3.07606
169.142	3.05751
168.926	3.0428
168.701	3.03265
168.701	3.03265
168.327	3.0418
168.031	3.05859
167.759	3.07356
167.455	3.07726
167.455	3.07726
167.26	3.057
167.073	3.03481
166.888	3.01138
166.701	2.98743
166.506	2.96366
166.301	2.94077
166.08	2.91948
165.839	2.90048
165.573	2.88449
165.573	2.88449
165.33	2.88007
165.161	2.87264
164.936	2.85698
164.936	2.85698
164.679	2.86171
164.5	2.87048
164.367	2.88036
164.25	2.88836
164.116	2.89155
163.934	2.88695
163.673	2.87162
163.673	2.87162
163.367	2.87501
163.03	2.88389
162.767	2.89725
162.767	2.89725
162.742	2.9226
162.717	2.94795
162.692	2.9733
162.667	2.99865
162.642	3.024
162.617	3.04935
162.592	3.07469
162.567	3.10004
162.542	3.12539
162.517	3.15074
162.492	3.17609
162.468	3.20144
162.443	3.22679
162.443	3.22679
162.412	3.22682
162.378	3.22687
162.345	3.23419
162.344	3.2319
162.344	3.2295
162.343	3.2269
162.343	3.2269
162.296	3.22696
162.287	3.19906
162.278	3.17107
162.268	3.14301
162.258	3.11491
162.246	3.08679
162.246	3.08679
162.15	3.0787
162.061	3.07443
161.978	3.0912
161.977	3.08755
161.977	3.08379
161.976	3.07983
161.904	3.07035
161.904	3.07035
161.828	3.04416
161.747	3.01787
161.648	2.99149
161.518	2.96503
161.345	2.93852
161.275	2.93678
161.135	2.93845
161.066	2.94054
161.014	2.97974
161.011	2.94484
161.011	2.94484
160.987	3.01255
160.863	3.04335
160.809	3.03203
160.784	3.02146
160.759	3.01068
160.734	2.9998
160.642	2.99809
160.52	3.01963
160.396	3.04117
160.271	3.06272
160.271	3.06272
160.061	3.08521
159.894	3.10755
159.764	3.12999
159.664	3.1528
159.587	3.17622
159.527	3.2005
159.477	3.2259
159.432	3.25267
159.432	3.25267
159.33	3.25279
159.229	3.25292
159.127	3.25304
159.127	3.25304
159.105	3.25625
159.083	3.25947
159.062	3.26268
159.062	3.26268
159.016	3.26274
158.97	3.26279
158.921	3.26285
158.921	3.26285
158.691	3.24396
158.439	3.23587
158.171	3.23645
157.889	3.24358
157.599	3.25511
157.306	3.26893
157.306	3.26893
157.183	3.28989
157.059	3.31065
156.933	3.33132
156.933	3.33132
156.748	3.39122
156.589	3.44254
156.454	3.48598
156.341	3.52229
156.247	3.55217
156.171	3.57635
156.11	3.59555
156.064	3.61049
156.029	3.6219
156.005	3.63051
155.988	3.63702
155.978	3.64216
155.972	3.64666
155.92	3.6276
155.833	3.60681
155.749	3.59228
155.597	3.57156
155.533	3.57164
155.509	3.57369
155.474	3.58221
155.407	3.60409
155.286	3.64626
155.092	3.71561
