Uv/Vis Spectrum: Pentalene,1,3,5-tris(1,1-dimethylethyl)-
Formula: C20H30
CAS: 50356-52-0
Melting point: 59
Instrument: Cary 17
Origin: INSTITUTE OF ENERGY PROBLEMS OF CHEMICAL PHYSICS, RAS
Wavelength (nm)	Logarithm epsilon
203.972	3.263
205.172	3.285
206.372	3.305
207.572	3.32
208.772	3.33
209.972	3.334
211.172	3.333
212.372	3.325
213.572	3.312
214.772	3.294
215.972	3.274
217.172	3.25
218.372	3.225
219.572	3.2
220.772	3.174
223.818	3.108
225.818	3.043
227.818	2.988
229.818	2.94
231.818	2.898
233.818	2.86
235.818	2.824
237.818	2.789
239.818	2.754
241.818	2.719
243.818	2.684
245.818	2.648
247.818	2.613
249.818	2.579
251.818	2.547
253.818	2.518
255.818	2.491
257.812	2.466
259.812	2.445
261.812	2.427
263.812	2.411
265.812	2.399
267.812	2.389
269.812	2.383
271.812	2.378
273.812	2.375
275.812	2.374
277.812	2.373
279.812	2.373
281.812	2.373
283.812	2.372
285.812	2.371
287.812	2.369
289.812	2.366
291.812	2.363
293.812	2.359
295.812	2.355
297.812	2.351
299.812	2.348
301.812	2.346
303.812	2.345
305.812	2.347
307.812	2.352
309.812	2.359
311.812	2.37
313.812	2.384
315.812	2.402
317.812	2.421
317.967	2.423
319.967	2.44
321.967	2.457
323.967	2.473
325.967	2.487
327.967	2.5
329.967	2.511
331.967	2.519
333.967	2.523
335.967	2.524
337.967	2.521
339.967	2.514
341.967	2.503
343.967	2.487
345.967	2.468
347.967	2.444
349.967	2.415
351.967	2.383
353.967	2.347
355.967	2.306
357.967	2.261
359.967	2.212
361.967	2.157
362.708	2.141
364.708	2.097
366.708	2.054
368.708	2.012
370.708	1.971
372.708	1.93
374.708	1.89
376.708	1.849
378.708	1.808
380.708	1.767
382.708	1.726
384.708	1.684
386.708	1.642
388.708	1.6
390.708	1.558
392.708	1.515
394.708	1.472
396.708	1.43
398.708	1.387
400.708	1.345
402.708	1.303
404.708	1.262
406.708	1.221
408.708	1.182
410.708	1.142
412.708	1.104
414.708	1.067
416.708	1.032
418.708	0.997
420.708	0.964
422.708	0.932
424.708	0.902
426.708	0.874
428.708	0.847
430.708	0.821
432.708	0.798
434.708	0.776
436.708	0.756
438.708	0.737
440.708	0.721
442.708	0.706
444.708	0.692
446.708	0.681
448.708	0.67
450.708	0.662
452.708	0.654
454.708	0.648
456.708	0.644
458.708	0.64
460.708	0.638
462.708	0.637
464.708	0.636
466.708	0.637
468.708	0.638
470.708	0.64
472.708	0.642
474.708	0.645
476.708	0.648
478.708	0.652
480.708	0.655
482.708	0.659
484.708	0.663
486.708	0.667
488.708	0.671
490.708	0.675
492.708	0.679
494.708	0.682
496.708	0.686
498.708	0.689
500.708	0.692
502.708	0.696
504.708	0.699
506.708	0.702
508.708	0.705
510.708	0.709
512.708	0.713
514.708	0.717
516.708	0.721
518.708	0.727
520.708	0.733
521.347	0.738
523.347	0.743
525.347	0.748
527.347	0.753
529.347	0.759
531.347	0.764
533.347	0.77
535.347	0.775
537.347	0.78
539.347	0.786
541.347	0.791
543.347	0.797
545.347	0.802
547.347	0.807
549.347	0.812
551.347	0.817
553.347	0.822
555.347	0.827
557.347	0.832
559.347	0.836
561.347	0.84
563.347	0.845
565.347	0.849
567.347	0.852
569.347	0.856
571.347	0.859
573.347	0.863
575.347	0.866
577.347	0.868
579.347	0.871
581.347	0.874
583.347	0.876
585.347	0.878
587.347	0.88
589.347	0.881
591.347	0.882
593.347	0.884
595.347	0.885
597.347	0.885
599.347	0.886
601.347	0.886
603.347	0.887
605.347	0.887
607.347	0.886
609.347	0.886
611.347	0.885
613.347	0.885
615.347	0.884
617.347	0.883
619.347	0.881
621.347	0.88
623.347	0.879
625.347	0.877
627.347	0.875
629.347	0.873
631.347	0.871
633.347	0.869
635.347	0.866
637.347	0.864
639.347	0.861
641.347	0.859
643.347	0.856
645.347	0.853
647.347	0.85
649.347	0.847
651.347	0.844
653.347	0.841
655.347	0.837
657.347	0.834
659.347	0.831
661.347	0.827
663.347	0.824
665.347	0.82
667.347	0.816
669.347	0.813
671.347	0.809
673.347	0.805
675.347	0.802
677.347	0.798
679.347	0.794
681.347	0.791
683.347	0.787
685.347	0.783
687.347	0.779
689.347	0.775
691.347	0.772
693.347	0.768
695.347	0.764
697.347	0.76
699.347	0.757
701.347	0.753
703.347	0.749
705.347	0.745
707.347	0.742
709.347	0.738
711.347	0.735
713.347	0.731
715.347	0.727
717.347	0.724
719.347	0.72
721.347	0.717
723.347	0.713
725.347	0.71
727.347	0.707
729.347	0.703
731.347	0.7
733.347	0.697
735.347	0.694
737.347	0.69
739.347	0.687
741.347	0.684
743.347	0.681
745.347	0.678
747.347	0.675
749.347	0.672
751.347	0.669
753.347	0.666
755.347	0.663
757.347	0.66
759.347	0.657
761.347	0.654
763.347	0.651
765.347	0.648
767.347	0.645
769.347	0.643
771.347	0.64
773.347	0.637
775.347	0.634
777.347	0.632
779.347	0.629
781.347	0.626
783.347	0.624
785.347	0.621
787.347	0.618
789.347	0.616
791.347	0.613
793.347	0.61
795.347	0.608
797.347	0.605
799.347	0.602
801.347	0.6
803.347	0.597
805.347	0.594
807.347	0.592
809.347	0.589
811.347	0.586
813.347	0.584
815.347	0.581
817.347	0.578
819.347	0.576
821.347	0.573
823.347	0.57
825.347	0.568
827.347	0.565
829.347	0.562
831.347	0.56
833.347	0.557
835.347	0.554
837.347	0.552
839.347	0.549
841.347	0.546
843.347	0.544
845.347	0.541
847.347	0.539
849.347	0.536
851.347	0.533
853.347	0.531
855.347	0.528
857.347	0.526
859.347	0.524
861.347	0.521
863.347	0.519
865.347	0.517
867.347	0.514
869.347	0.512
871.347	0.51
873.347	0.508
875.347	0.506
877.347	0.504
879.347	0.503
881.347	0.501
883.347	0.499
885.347	0.498
887.347	0.496
889.347	0.495
891.347	0.494
893.347	0.493
895.347	0.492
897.347	0.492
899.347	0.491
