Uv/Vis Spectrum: 4-Pyridinamine
Formula: C5H6N2
CAS: 504-24-5
Melting point: 158.5
Instrument: n.i.g.
Origin: INSTITUTE OF ENERGY PROBLEMS OF CHEMICAL PHYSICS, RAS
Wavelength (nm)	Logarithm epsilon
210.31	3.201
210.71	3.256
210.96	3.296
211.23	3.356
211.6	3.41
211.94	3.459
212.27	3.483
212.57	3.493
212.9	3.494
213.15	3.482
213.47	3.459
213.86	3.41
214.18	3.372
214.47	3.329
214.83	3.258
215.18	3.169
215.47	3.074
215.79	2.934
216.12	2.833
216.42	2.771
216.76	2.706
217.08	2.655
217.4	2.604
217.73	2.541
218.02	2.472
218.37	2.42
218.7	2.373
219.02	2.292
219.34	2.198
219.66	2.105
219.98	2.039
220.26	2.009
220.63	1.989
220.85	1.981
221.12	1.975
221.46	1.968
221.9	1.961
222.23	1.954
222.56	1.951
222.88	1.951
223.21	1.951
223.81	1.953
224.47	1.962
224.83	1.968
225.14	1.976
225.46	1.982
225.78	1.989
226.09	1.997
226.43	2.005
226.75	2.014
227.08	2.024
227.42	2.034
227.75	2.048
228.04	2.058
228.36	2.071
228.7	2.087
229.51	2.128
230.9	2.197
232.12	2.259
233.6	2.335
235.11	2.411
236.09	2.46
236.42	2.477
236.74	2.496
237.07	2.509
237.39	2.534
237.67	2.553
238	2.568
238.35	2.591
238.69	2.626
239	2.649
239.32	2.668
239.64	2.684
240.21	2.715
240.61	2.744
240.93	2.756
241.26	2.782
241.58	2.807
242.06	2.839
242.45	2.858
242.87	2.877
243.19	2.902
243.51	2.915
243.83	2.934
244.18	2.959
244.48	2.982
244.8	2.998
245.12	3.004
245.45	3.023
245.77	3.042
246.09	3.061
246.41	3.08
246.73	3.093
247.05	3.114
247.41	3.129
247.7	3.15
248.02	3.175
248.35	3.194
248.67	3.207
249.02	3.226
249.31	3.245
249.62	3.265
249.96	3.27
250.25	3.284
250.6	3.296
250.92	3.315
251.25	3.321
251.5	3.346
251.86	3.365
252.19	3.385
252.54	3.397
252.86	3.41
253.18	3.423
253.5	3.448
253.83	3.461
254.37	3.493
254.79	3.518
255.11	3.531
255.44	3.55
255.76	3.569
256.13	3.59
256.55	3.617
257.05	3.645
257.33	3.655
257.69	3.668
257.98	3.681
258.36	3.694
258.65	3.704
259.3	3.725
259.6	3.732
259.95	3.74
260.27	3.746
260.59	3.753
260.92	3.759
261.24	3.765
261.56	3.772
261.88	3.778
262.21	3.784
262.53	3.784
262.85	3.784
263.17	3.784
264.46	3.765
264.78	3.759
265.11	3.753
265.43	3.746
265.72	3.742
266.07	3.734
266.34	3.724
266.72	3.715
267.02	3.706
267.36	3.696
267.7	3.685
268.24	3.661
268.73	3.64
269.02	3.631
269.3	3.619
269.62	3.607
269.94	3.594
270.26	3.575
270.41	3.566
270.77	3.55
271.23	3.524
271.54	3.507
271.87	3.486
272.12	3.471
272.42	3.455
272.71	3.432
273.09	3.407
273.48	3.378
273.81	3.359
274.13	3.34
274.45	3.321
274.78	3.309
275.1	3.29
275.55	3.265
275.97	3.231
276.36	3.201
276.71	3.179
277.03	3.156
277.36	3.136
277.68	3.118
278	3.093
278.32	3.08
278.64	3.061
278.97	3.042
279.34	3.014
279.75	2.985
280.17	2.951
280.63	2.9
280.97	2.86
281.39	2.805
281.78	2.754
282.05	2.704
282.44	2.63
282.74	2.574
283.22	2.513
283.62	2.465
284.44	2.372
284.86	2.311
285.27	2.25
285.71	2.197
286.03	2.163
286.37	2.134
286.7	2.103
