Uv/Vis Spectrum: 1,3-Pentadiene
Formula: C5H8
CAS: 504-60-9
Boiling point: 41.8
Instrument: Zeiss PMQ II
Origin: INSTITUTE OF ENERGY PROBLEMS OF CHEMICAL PHYSICS, RAS
Wavelength (nm)	Logarithm epsilon
183.31	3.483
183.96	3.487
184.54	3.493
185.13	3.5
185.79	3.506
186.45	3.513
187.05	3.519
187.65	3.53
188.25	3.54
188.79	3.553
189.32	3.564
189.86	3.575
190.4	3.587
190.94	3.598
191.49	3.611
192.04	3.624
192.51	3.637
192.99	3.649
193.55	3.662
194.11	3.675
194.51	3.69
195	3.703
195.49	3.716
196.06	3.728
196.47	3.743
196.97	3.756
197.47	3.771
197.97	3.786
198.47	3.801
198.9	3.816
199.4	3.831
199.83	3.848
200.34	3.861
200.77	3.878
201.29	3.893
201.73	3.908
202.16	3.923
202.6	3.94
203.13	3.955
203.57	3.972
204.01	3.989
204.55	4.004
205	4.021
205.54	4.036
205.9	4.053
206.44	4.068
206.81	4.085
207.36	4.1
207.73	4.117
208.19	4.132
208.65	4.147
209.21	4.162
209.68	4.179
210.15	4.196
210.62	4.211
211.1	4.229
211.67	4.243
212.15	4.261
212.73	4.276
213.31	4.29
213.9	4.305
214.48	4.318
215.08	4.333
215.67	4.348
216.37	4.359
217.07	4.372
217.88	4.38
218.69	4.391
219.52	4.399
220.45	4.404
221.28	4.412
222.12	4.419
223.07	4.423
224.03	4.423
224.79	4.41
225.55	4.397
226.2	4.382
226.86	4.37
227.52	4.357
228.07	4.342
228.74	4.329
229.53	4.316
230.77	4.284
230.89	4.28
231	4.278
231.12	4.276
231.23	4.273
231.34	4.271
231.46	4.267
231.57	4.265
231.69	4.263
232.15	4.248
232.61	4.229
233.07	4.205
233.54	4.179
234	4.152
234.47	4.124
234.94	4.092
235.42	4.06
235.89	4.021
236.37	3.966
236.85	3.912
237.33	3.861
237.81	3.81
238.29	3.756
238.78	3.692
239.27	3.643
239.76	3.592
240.25	3.547
240.75	3.506
241.24	3.444
241.74	3.372
242.24	3.307
242.74	3.248
243.25	3.181
243.76	3.085
244.26	3.004
244.78	2.923
245.29	2.829
245.8	2.754
246.32	2.673
246.84	2.606
247.36	2.51
247.89	2.44
248.41	2.371
248.94	2.309
249.47	2.222
250.01	2.168
250.54	2.094
251.08	2.029
251.62	1.942
252.16	1.873
252.71	1.805
253.25	1.737
253.8	1.649
254.35	1.578
254.91	1.514
255.47	1.444
