Uv/Vis Spectrum: 2-Aminopyridine
Formula: C5H6N2
CAS: 504-29-0
Melting point: 57.5
Boiling point: 105(20)
Instrument: n.i.g.
Origin: INSTITUTE OF ENERGY PROBLEMS OF CHEMICAL PHYSICS, RAS
Wavelength (nm)	Logarithm epsilon
223.779	3.88977
223.878	3.89898
223.949	3.90375
224.704	3.90524
225.099	3.90612
225.438	3.91858
225.63	3.92494
226.398	3.93249
226.789	3.93887
227.227	3.93955
230.744	3.9323
231.534	3.92278
232.356	3.91733
232.564	3.89543
233.969	3.85645
234.609	3.83566
235.095	3.82874
235.166	3.80038
235.378	3.78708
235.664	3.74907
235.809	3.7835
236.007	3.78188
236.153	3.71743
236.369	3.70558
236.968	3.66435
237.092	3.65446
237.382	3.62162
237.596	3.60794
238.016	3.57356
238.228	3.55662
238.606	3.52064
238.833	3.50696
238.946	3.50026
239.138	3.45801
239.512	3.41694
239.726	3.40173
240.127	3.34608
240.138	3.35955
240.399	3.29075
240.411	3.30565
240.689	3.2579
240.915	3.24269
241.027	3.23509
241.213	3.18615
241.591	3.14934
241.698	3.13657
241.906	3.09856
242.121	3.08518
242.48	3.02558
242.492	3.04048
242.802	2.9824
242.811	2.99426
243.386	2.92188
243.397	2.93534
243.894	2.88137
244.018	2.87139
244.304	2.83338
244.519	2.81999
244.604	2.8133
244.691	2.77622
244.86	2.68957
244.892	2.72908
244.903	2.74246
244.971	2.68197
245.097	2.59107
245.131	2.63303
245.142	2.64669
245.313	2.57921
245.363	2.52965
245.374	2.54303
246.329	2.50012
246.563	2.49495
246.68	2.4925
247.221	2.49158
247.986	2.49244
248.859	2.49393
250.78	2.51875
251.346	2.53302
252.488	2.5743
252.814	2.58523
253.992	2.62104
254.241	2.63593
254.853	2.65747
254.864	2.67094
254.87	2.67784
255.548	2.69008
256.732	2.72821
257.15	2.74067
258.083	2.78226
258.292	2.79389
259.431	2.83265
259.643	2.84784
260.462	2.88306
260.911	2.89824
262.175	2.94378
262.388	2.96049
263.332	3.00299
263.46	3.0122
264.361	3.05097
264.7	3.06343
265.39	3.09895
265.73	3.11301
266.614	3.14297
266.824	3.15634
267.962	3.19337
268.171	3.205
269.31	3.24376
269.517	3.2538
270.498	3.29295
271.063	3.3054
272.005	3.34455
272.25	3.35305
272.387	3.37493
272.391	3.37989
273.706	3.39007
274.398	3.43338
274.901	3.44807
275.46	3.453
275.739	3.45563
276.069	3.47151
276.234	3.47962
277.926	3.5155
280.096	3.55391
280.754	3.56908
282.442	3.61429
282.649	3.62279
282.769	3.62704
283.209	3.63015
285.097	3.66462
285.993	3.68131
288.426	3.71644
289.318	3.72734
293.572	3.7627
294.777	3.76933
298.382	3.78527
299.925	3.7852
300.679	3.78516
301.111	3.78158
303.95	3.76494
304.931	3.75548
308.194	3.72431
308.857	3.71403
310.774	3.68376
311.229	3.67349
313.03	3.63319
313.259	3.62293
314.656	3.58751
314.964	3.57656
316.239	3.53698
316.695	3.52754
317.863	3.48887
318.08	3.47862
319.13	3.44078
319.584	3.42892
320.753	3.39024
320.967	3.37686
321.7	3.33731
322.124	3.32544
322.969	3.29165
323.183	3.27653
323.92	3.24388
324.135	3.2302
324.865	3.1882
325.081	3.17635
325.816	3.14013
325.924	3.12918
326.761	3.08446
326.976	3.07177
327.353	3.03397
327.568	3.02058
327.987	2.98591
328.204	2.97406
328.576	2.93056
328.582	2.93878
329.206	2.87733
329.215	2.88897
329.502	2.85209
329.727	2.83688
330.132	2.79916
330.343	2.7804
330.743	2.72314
330.754	2.73661
331.036	2.69303
331.249	2.67782
331.614	2.62492
331.623	2.63655
331.929	2.57414
331.939	2.586
332.521	2.52365
332.53	2.53369
332.849	2.48837
333.067	2.47811
333.786	2.42266
333.795	2.43431
334.378	2.37218
334.388	2.38382
335.027	2.34175
335.242	2.32836
335.974	2.28881
336.19	2.27696
336.924	2.24074
337.35	2.22977
337.873	2.19023
338.297	2.17684
