Uv/Vis Spectrum: dihydro-2-thioxo-4,6(1H,5H)-pyrimidinedione
Formula: C4H4N2O2S
CAS: 504-17-6
Melting point: 235 dec.
Instrument: SF-16
Origin: INSTITUTE OF ENERGY PROBLEMS OF CHEMICAL PHYSICS, RAS
Wavelength (nm)	Logarithm epsilon
197.398	3.619
198.398	3.625
199.398	3.627
200.398	3.628
201.398	3.63
202.398	3.634
203.398	3.64
204.398	3.648
205.398	3.657
206.398	3.667
207.398	3.677
208.398	3.686
209.398	3.694
210.398	3.7
211.398	3.705
212.398	3.707
213.398	3.707
214.398	3.706
215.398	3.705
216.398	3.703
217.398	3.703
218.398	3.705
219.398	3.71
220.398	3.718
221.165	3.725
222.165	3.741
223.165	3.756
224.165	3.772
225.165	3.789
226.165	3.807
227.165	3.826
228.165	3.844
229.165	3.861
230.165	3.876
231.165	3.889
231.766	3.895
232.766	3.907
233.766	3.918
234.766	3.921
235.766	3.915
236.766	3.9
237.766	3.875
238.766	3.844
239.766	3.809
240.766	3.772
241.683	3.736
242.683	3.698
243.683	3.663
244.683	3.632
245.683	3.606
246.683	3.588
247.683	3.577
248.683	3.576
249.683	3.585
250.683	3.606
251.429	3.633
252.429	3.67
253.429	3.707
254.429	3.742
255.429	3.777
256.429	3.81
257.429	3.842
258.429	3.874
259.429	3.905
260.429	3.934
261.429	3.963
262.429	3.99
263.429	4.017
264.429	4.043
265.429	4.067
266.429	4.091
267.429	4.114
268.429	4.135
268.527	4.14
269.527	4.155
270.527	4.174
271.527	4.194
272.527	4.214
273.527	4.233
274.527	4.25
275.527	4.265
276.527	4.277
277.527	4.286
278.527	4.293
279.527	4.298
280.527	4.3
281.527	4.3
282.527	4.298
283.527	4.294
284.527	4.289
285.527	4.282
286.527	4.274
287.527	4.262
288.361	4.25
289.361	4.23
290.361	4.208
291.361	4.185
292.361	4.161
293.361	4.135
294.361	4.107
295.361	4.077
296.361	4.044
297.361	4.01
298.361	3.972
299.133	3.941
300.133	3.898
301.133	3.846
302.133	3.788
303.133	3.722
