Uv/Vis Spectrum: Aminopyrazine
Formula: C4H5N3
CAS: 5049-61-6
Melting point: 125-6
Instrument: Spectrophotometer SF-16
Origin: INSTITUTE OF ENERGY PROBLEMS OF CHEMICAL PHYSICS, RAS
Wavelength (nm)	Logarithm epsilon
210	3.65
211	3.69
212	3.73
213	3.77
214	3.78
215	3.82
216	3.87
217	3.92
218	3.97
219	4.01
220	4.06002
221	4.1
222	4.12
223	4.14
224	4.16
225	4.19
226	4.21
227	4.21
228	4.21
229	4.22
230	4.18999
231	4.16
232	4.11
233	4.06
234	4.01
235	3.96
236	3.91
237	3.86
238	3.8
239	3.75
240	3.7
241	3.65
242	3.54
243	3.41
244	3.27
245	3.14
246	3.01
247	2.88
248	2.75
249	2.71
250	2.67001
251	2.66
252	2.65
253	2.66
254	2.68
255	2.7
256	2.71
257	2.73
258	2.75
259	2.78
260	2.81
261	2.84
262	2.87
263	2.9
264	2.93
265	2.96
266	2.99
267	3.02
268	3.05
269	3.07
270	3.09001
271	3.11
272	3.13
273	3.15
274	3.17
275	3.19
276	3.2
277	3.22
278	3.24
279	3.26
280	3.28001
281	3.3
282	3.32
283	3.34
284	3.36
285	3.38
286	3.4
287	3.42
288	3.44
289	3.46
290	3.48001
291	3.5
292	3.52
293	3.53
294	3.54
295	3.55
296	3.54
297	3.55
298	3.55
299	3.54
300	3.54
301	3.53
302	3.53
303	3.53
304	3.51
305	3.5
306	3.49
307	3.47
308	3.45
309	3.44
310	3.42001
311	3.4
312	3.37
313	3.33
314	3.31
315	3.29
316	3.24
317	3.2
318	3.15
319	3.12
