Uv/Vis Spectrum: 1,1,3,4,4,5,6,6a-octachloro-4,6a-dihydro-2(1H)-pentalenone
Formula: C8Cl8O
CAS: 50558-37-7
Melting point: 97-99
Instrument: Hitachi EPS-20
Origin: INSTITUTE OF ENERGY PROBLEMS OF CHEMICAL PHYSICS, RAS
Wavelength (nm)	Logarithm epsilon
212.377	3.957
213.877	3.967
215.377	3.977
216.877	3.987
218.377	3.997
219.877	4.004
221.377	4.009
222.877	4.011
224.377	4.009
225.877	4.004
227.377	3.995
228.877	3.982
230.377	3.965
231.877	3.944
233.377	3.92
234.688	3.892
236.188	3.87
237.688	3.841
239.188	3.81
240.688	3.78
242.188	3.755
243.688	3.736
245.188	3.726
246.688	3.723
248.188	3.729
249.688	3.74
251.188	3.755
252.688	3.767
252.697	3.764
254.197	3.777
255.697	3.792
257.197	3.806
258.697	3.819
260.197	3.828
261.697	3.833
263.197	3.833
264.697	3.828
266.197	3.818
267.697	3.803
269.197	3.782
270.697	3.756
272.197	3.726
273.697	3.691
275.197	3.653
276.697	3.612
278.197	3.567
279.697	3.52
281.197	3.47
282.697	3.418
284.197	3.364
285.697	3.307
287.197	3.247
288.697	3.184
290.197	3.116
291.697	3.042
293.197	2.961
294.697	2.871
296.197	2.769
297.697	2.653
