Uv/Vis Spectrum: 1,3-Dithiane
Formula: C4H8S2
CAS: 505-23-7
Melting point: 54
Boiling point: 89(14)
Instrument: n.i.g.
Origin: INSTITUTE OF ENERGY PROBLEMS OF CHEMICAL PHYSICS, RAS
Wavelength (nm)	Logarithm epsilon
204.548	3.11157
206.452	3.11483
210.22	3.1013
211.304	3.0881
212.13	3.07166
213.406	3.03792
213.731	2.98825
213.966	2.95977
214.183	2.94692
214.566	2.93868
215.355	2.88396
215.559	2.86682
215.764	2.84957
215.968	2.83206
216.997	2.77052
217.192	2.75799
217.387	2.74545
217.582	2.73291
218.621	2.66623
218.902	2.63883
219.184	2.6113
219.465	2.58351
221.811	2.4868
222.508	2.46589
223.647	2.45028
225.664	2.43041
229.701	2.42436
231.896	2.42999
233.048	2.43452
234.144	2.44184
237.563	2.48997
239.561	2.51028
240.587	2.51908
241.52	2.52393
246.63	2.5484
249.346	2.54323
251.303	2.53334
253.787	2.51211
253.787	2.51211
253.793	2.50909
253.799	2.50581
253.806	2.5024
256.223	2.45544
256.564	2.43492
256.93	2.41442
257.309	2.39391
258.366	2.34668
258.53	2.32954
258.72	2.31228
258.923	2.29477
259.923	2.24752
260.015	2.23096
260.119	2.2144
260.249	2.19785
260.641	2.14305
260.964	2.12423
261.299	2.10528
261.661	2.08608
262.293	2.02447
262.385	2.00791
262.489	1.99135
262.618	1.9748
262.963	1.91541
263.313	1.89031
263.688	1.86508
264.077	1.8396
264.189	1.78303
264.788	1.74045
265.256	1.71905
265.878	1.6456
265.97	1.62904
265.996	1.7005
266.074	1.61248
266.204	1.59593
266.557	1.53197
266.896	1.50515
267.248	1.4782
267.625	1.45101
268.257	1.38939
268.428	1.36885
268.624	1.34831
268.833	1.32777
269.398	1.27128
269.75	1.24546
270.127	1.21939
270.517	1.19319
271.107	1.12414
271.333	1.096
271.56	1.06761
271.786	1.03909
272.372	0.972323
272.723	0.946649
273.1	0.920848
273.489	0.894798
274.071	0.830319
274.257	0.802171
274.468	0.773779
274.693	0.745262
275.288	0.673924
275.501	0.652072
275.715	0.62997
275.929	0.607734
276.949	0.550779
277.182	0.519355
277.414	0.487817
277.647	0.456017
278.223	0.394399
278.504	0.366983
278.785	0.339451
279.067	0.311669
279.941	0.242666
280.112	0.222118
280.308	0.201588
280.517	0.181043
