Uv/Vis Spectrum: Chlorpromazine
Formula: C17H19ClN2S
CAS: 50-53-3
Melting point: 195-197
Instrument: Hilger Uvispek
Origin: INSTITUTE OF ENERGY PROBLEMS OF CHEMICAL PHYSICS, RAS
Wavelength (nm)	Logarithm epsilon
210.01	4.415
211.54	4.404
212.89	4.391
214.25	4.377
215.44	4.36
216.62	4.339
217.64	4.319
218.66	4.295
219.68	4.271
220.53	4.244
221.37	4.22
222.22	4.192
223.07	4.168
224.09	4.148
225.28	4.131
226.63	4.12
228.16	4.124
229.52	4.137
230.87	4.151
232.23	4.161
233.59	4.175
234.94	4.189
236.3	4.199
237.83	4.209
239.19	4.22
240.71	4.23
241.9	4.247
242.92	4.268
243.94	4.288
244.93	4.314
245.8	4.336
246.82	4.36
247.96	4.385
248.69	4.404
249.87	4.425
250.89	4.446
252.08	4.463
253.27	4.48
254.79	4.49
256.32	4.497
257.68	4.487
259.03	4.469
260.05	4.446
260.9	4.422
261.58	4.394
262.26	4.367
262.6	4.336
262.93	4.305
263.27	4.274
263.61	4.244
264.12	4.216
264.63	4.185
264.97	4.155
265.48	4.124
265.82	4.093
266.16	4.062
266.67	4.035
267.01	4.004
267.51	3.973
267.85	3.942
268.19	3.912
268.53	3.881
269.04	3.853
269.38	3.823
269.72	3.792
270.23	3.761
270.57	3.73
270.74	3.699
271.25	3.672
271.76	3.641
272.09	3.61
272.43	3.58
272.94	3.552
273.28	3.521
273.79	3.491
274.13	3.46
274.64	3.429
274.98	3.398
275.49	3.371
276	3.343
277.01	3.319
278.03	3.296
279.39	3.278
280.92	3.278
282.44	3.285
283.8	3.296
284.99	3.313
286.17	3.333
287.19	3.357
288.21	3.378
289.06	3.402
289.91	3.426
290.92	3.446
291.94	3.47
292.96	3.491
293.98	3.511
295.17	3.532
296.35	3.549
297.71	3.566
299.07	3.583
300.42	3.597
301.78	3.607
303.31	3.61
304.83	3.614
306.36	3.61
307.89	3.61
309.41	3.61
310.94	3.61
312.47	3.607
313.99	3.607
315.52	3.6
317.05	3.59
318.41	3.576
319.76	3.566
321.12	3.552
322.48	3.535
323.66	3.518
324.68	3.497
325.87	3.477
327.06	3.46
328.24	3.439
329.26	3.419
330.28	3.395
331.3	3.374
332.32	3.354
333.16	3.33
334.18	3.309
335.2	3.289
336.05	3.261
337.07	3.237
337.91	3.213
338.93	3.189
339.78	3.162
340.63	3.138
341.31	3.111
342.32	3.087
343	3.059
344.02	3.035
344.7	3.008
345.55	2.984
346.23	2.957
347.07	2.933
347.75	2.905
348.6	2.878
349.11	2.851
349.79	2.823
350.64	2.796
351.31	2.768
352.16	2.741
352.84	2.714
353.52	2.686
354.2	2.659
354.88	2.632
355.56	2.604
356.23	2.577
356.91	2.549
357.59	2.522
358.1	2.495
358.95	2.467
359.46	2.44
360.14	2.412
360.64	2.385
361.32	2.358
362	2.33
362.51	2.303
363.19	2.276
363.7	2.248
364.55	2.221
365.06	2.19
365.73	2.163
366.24	2.135
366.75	2.108
367.43	2.08
367.94	2.053
368.62	2.026
369.3	1.998
369.64	1.968
370.31	1.94
370.82	1.913
371.5	1.885
372.01	1.858
372.69	1.831
373.2	1.803
373.71	1.776
374.39	1.748
374.89	1.721
375.57	1.694
376.08	1.666
376.76	1.639
377.27	1.612
377.95	1.584
378.46	1.557
378.97	1.529
379.64	1.502
380.15	1.475
381	1.447
381.51	1.416
382.02	1.389
382.53	1.362
383.21	1.334
383.72	1.307
384.22	1.28
384.9	1.252
385.41	1.221
385.92	1.194
386.6	1.167
387.11	1.136
387.62	1.108
388.3	1.081
388.8	1.05
