Uv/Vis Spectrum: 1,4-Dithiane
Formula: C4H8S2
CAS: 505-29-3
Melting point: 112.3
Boiling point: 199.5
Instrument: n.i.g.
Origin: INSTITUTE OF ENERGY PROBLEMS OF CHEMICAL PHYSICS, RAS
Wavelength (nm)	Logarithm epsilon
184.859	3.50251
185.585	3.50822
186.185	3.51509
186.676	3.52276
187.071	3.53091
187.386	3.53921
187.636	3.5474
187.834	3.55518
187.997	3.56233
188.138	3.5686
188.273	3.57376
188.273	3.57376
188.356	3.58039
188.53	3.59334
188.62	3.59966
188.712	3.6059
188.903	3.61809
189.002	3.62406
189.102	3.62995
189.204	3.63575
189.309	3.64147
189.414	3.64712
189.522	3.65269
189.632	3.65818
189.743	3.66361
189.855	3.66897
189.97	3.67426
190.085	3.67948
190.202	3.68464
190.321	3.68973
190.441	3.69476
190.562	3.69974
190.685	3.70465
190.808	3.70951
190.933	3.71431
191.059	3.71906
191.186	3.72375
191.314	3.72839
191.443	3.73298
191.572	3.73752
191.703	3.74201
191.834	3.74645
191.967	3.75085
192.099	3.7552
192.233	3.7595
192.367	3.76376
192.501	3.76798
192.637	3.77215
192.772	3.77628
192.908	3.78037
193.044	3.78442
193.181	3.78844
193.318	3.79241
193.455	3.79635
193.592	3.80024
193.729	3.80411
193.866	3.80793
194.003	3.81172
194.141	3.81548
194.141	3.81548
194.668	3.82013
195.328	3.82253
196.784	3.82376
196.784	3.82376
197.154	3.82119
197.488	3.81821
197.788	3.81485
198.057	3.81115
198.297	3.80714
198.509	3.80286
198.695	3.79833
198.858	3.79361
198.998	3.78872
199.119	3.78371
199.222	3.77862
199.309	3.7735
199.382	3.76838
199.443	3.76332
199.494	3.75838
199.536	3.75359
199.572	3.74902
199.604	3.74472
199.633	3.74076
199.662	3.73719
199.692	3.73407
199.726	3.73147
199.726	3.73147
199.821	3.72695
199.914	3.72237
200.005	3.71774
200.095	3.71306
200.184	3.70831
200.27	3.70351
200.356	3.69865
200.441	3.69373
200.524	3.68875
200.607	3.6837
200.689	3.67859
200.77	3.67341
200.85	3.66816
200.93	3.66285
201.01	3.65746
201.089	3.652
201.168	3.64647
201.247	3.64086
201.326	3.63518
201.406	3.62941
201.485	3.62357
201.565	3.61764
201.645	3.61162
201.726	3.60552
201.807	3.59933
201.889	3.59304
201.972	3.58666
202.056	3.58018
202.141	3.5736
202.228	3.56692
202.315	3.56013
202.404	3.55324
202.495	3.54623
202.587	3.5391
202.681	3.53186
202.776	3.52449
202.874	3.51699
202.973	3.50937
203.075	3.5016
203.179	3.4937
203.285	3.48565
203.394	3.47745
203.506	3.46909
203.619	3.46058
203.736	3.45189
203.856	3.44303
203.979	3.43399
204.104	3.42476
204.233	3.41534
204.365	3.40571
204.501	3.39587
204.64	3.38581
204.783	3.37551
204.93	3.36497
205.08	3.35418
205.234	3.34311
205.393	3.33177
205.555	3.32014
205.722	3.30819
205.893	3.29592
206.069	3.2833
206.249	3.27032
206.434	3.25695
206.623	3.24317
206.817	3.22895
206.817	3.22895
207.084	3.21933
207.367	3.20843
207.668	3.19627
207.986	3.18285
208.321	3.16817
208.675	3.15224
209.047	3.13505
209.437	3.11659
209.846	3.09685
210.274	3.07584
210.722	3.05355
211.189	3.02997
211.677	3.00512
212.184	2.97903
212.712	2.95172
213.261	2.92327
213.832	2.89376
214.423	2.86333
215.037	2.83218
215.672	2.80056
216.33	2.76882
217.01	2.73743
217.713	2.70697
218.439	2.67816
219.189	2.65188
219.963	2.62912
219.963	2.62912
221.291	2.6304
222.577	2.63078
223.827	2.63014
225.045	2.62832
226.236	2.62517
227.405	2.62053
228.556	2.6142
229.695	2.60596
230.826	2.59557
231.954	2.5827
233.083	2.56698
234.219	2.54795
235.366	2.525
236.529	2.49733
237.712	2.46388
242.716	2.30074
244.465	2.25956
246.026	2.20523
