Uv/Vis Spectrum: (S)-5'-S-(3-amino-3-carboxypropyl)-5'-thiocytidine
Formula: C13H20N4O6S
CAS: 50615-58-2
Melting point: 184-186 dec.
Instrument: Specord UV-Vis
Origin: INSTITUTE OF ENERGY PROBLEMS OF CHEMICAL PHYSICS, RAS
Wavelength (nm)	Logarithm epsilon
200.679	4.311
201.679	4.305
202.679	4.294
203.679	4.279
204.679	4.26
205.679	4.238
206.679	4.214
207.679	4.189
208.679	4.163
209.679	4.137
210.679	4.112
211.679	4.087
212.679	4.065
213.679	4.043
214.679	4.024
215.679	4.007
216.679	3.992
217.679	3.978
218.679	3.967
219.679	3.957
220.679	3.949
221.679	3.943
222.679	3.937
223.679	3.931
224.679	3.926
225.679	3.922
226.679	3.917
227.679	3.912
228.679	3.907
229.679	3.903
230.654	3.896
231.654	3.897
232.654	3.896
233.654	3.893
234.654	3.889
235.654	3.884
236.654	3.878
237.654	3.872
238.654	3.865
239.654	3.858
240.654	3.851
241.654	3.845
242.654	3.838
243.654	3.833
244.654	3.827
245.654	3.823
246.654	3.82
247.654	3.817
248.654	3.816
249.654	3.816
250.654	3.817
251.654	3.819
252.654	3.823
253.654	3.828
254.654	3.834
255.654	3.841
256.654	3.849
257.654	3.858
258.654	3.867
259.654	3.877
260.593	3.881
261.647	3.894
262.537	3.904
263.537	3.913
264.537	3.925
265.537	3.937
266.537	3.948
267.537	3.958
268.537	3.964
269.537	3.968
270.537	3.97
271.537	3.968
272.537	3.964
273.537	3.958
274.537	3.95
275.537	3.94
276.537	3.928
277.537	3.914
278.537	3.897
279.537	3.878
280.537	3.856
281.537	3.831
282.537	3.803
283.537	3.772
284.679	3.743
285.548	3.709
286.548	3.672
287.548	3.628
288.548	3.578
289.548	3.523
290.548	3.463
291.548	3.398
292.548	3.323
292.572	3.321
293.572	3.235
294.572	3.128
295.572	2.997
296.572	2.814
