Uv/Vis Spectrum: Benzoic acid, 2-(acetyloxy)-
Formula: C9H8O4
CAS: 50-78-2
Melting point: 135
Instrument: Unicam SP 500
Origin: INSTITUTE OF ENERGY PROBLEMS OF CHEMICAL PHYSICS, RAS
Wavelength (nm)	Logarithm epsilon
211.87	3.972
212.88	3.948
213.9	3.924
214.92	3.903
216.11	3.886
217.46	3.873
218.99	3.866
220.51	3.862
222.04	3.856
223.56	3.852
225.09	3.845
226.45	3.832
227.8	3.818
229.16	3.804
230.35	3.787
231.53	3.767
232.72	3.75
233.74	3.726
234.75	3.705
235.77	3.681
236.62	3.657
237.47	3.634
238.31	3.606
238.99	3.579
239.67	3.552
240.35	3.524
241.03	3.497
241.7	3.47
242.21	3.439
242.72	3.412
243.4	3.384
244.08	3.357
244.76	3.33
245.26	3.302
246.11	3.275
246.62	3.248
247.3	3.22
247.98	3.193
248.65	3.166
249.33	3.138
249.84	3.111
250.52	3.084
251.03	3.056
251.71	3.029
252.38	3.002
253.06	2.974
253.57	2.947
254.25	2.92
255.27	2.896
256.11	2.872
257.3	2.851
258.66	2.838
260.01	2.824
261.54	2.817
263.06	2.817
264.59	2.821
266.12	2.827
267.64	2.834
269	2.844
270.52	2.851
271.88	2.862
273.41	2.862
274.93	2.862
276.29	2.848
277.81	2.841
279.17	2.827
280.36	2.81
281.37	2.79
282.22	2.762
283.24	2.739
284.09	2.711
284.93	2.684
285.61	2.657
286.46	2.629
286.97	2.602
287.65	2.575
288.15	2.547
288.66	2.52
289.17	2.493
289.68	2.465
290.19	2.438
290.53	2.407
291.04	2.38
291.55	2.353
292.05	2.322
292.39	2.291
292.9	2.264
293.24	2.233
293.75	2.206
294.09	2.175
294.6	2.144
294.94	2.113
295.27	2.083
295.61	2.052
295.95	2.021
296.46	1.99
296.8	1.96
297.14	1.929
297.48	1.898
297.82	1.867
298.16	1.837
298.5	1.806
298.83	1.775
299.17	1.744
299.51	1.714
299.85	1.683
300.36	1.652
300.7	1.621
301.04	1.591
301.55	1.563
301.89	1.533
302.39	1.505
302.9	1.475
303.41	1.447
303.92	1.42
304.43	1.393
304.94	1.365
305.45	1.338
306.12	1.311
306.63	1.283
307.14	1.256
307.65	1.229
308.16	1.201
308.84	1.174
309.35	1.147
310.02	1.119
