Uv/Vis Spectrum: 7-amino-1,5-dihydro-1,3-dimethyl-2,4,6(3H)-pteridinetrione
Formula: C8H9N5O3
CAS: 50787-03-6
Melting point: >360
Instrument: unknown
Origin: INSTITUTE OF ENERGY PROBLEMS OF CHEMICAL PHYSICS, RAS
Wavelength (nm)	Logarithm epsilon
200	4.076
201.5	4.099
203	4.115
204.5	4.137
206	4.155
207.5	4.15
209	4.113
210.479	4.065
211.979	4.002
213.479	3.971
214.979	3.962
216.479	3.966
217.979	3.978
219.479	3.996
220.979	4.017
222.479	4.039
223.979	4.061
224.252	4.064
225.752	4.083
226.947	4.101
228.447	4.125
229.947	4.141
231.447	4.153
232.947	4.162
234.447	4.167
235.947	4.17
237.447	4.172
238.947	4.181
240.432	4.187
241.932	4.188
243.432	4.184
244.932	4.174
246.432	4.162
247.932	4.149
249.402	4.141
250.902	4.132
252.402	4.128
253.902	4.108
255.402	4.061
256.902	3.984
258.402	3.888
260.48	3.783
261.98	3.753
263.48	3.742
264.98	3.743
266.48	3.751
267.98	3.763
269.48	3.777
270.98	3.791
272.48	3.805
273.98	3.818
275.48	3.831
276.98	3.841
278.48	3.847
279.643	3.851
281.143	3.854
282.643	3.85
284.143	3.84
285.643	3.829
287.143	3.819
288.643	3.812
290.143	3.81
291.643	3.804
293.116	3.781
294.616	3.667
296.116	3.56
297.616	3.492
299.116	3.464
300.616	3.465
302.116	3.477
303.616	3.488
305.092	3.506
306.592	3.535
308.092	3.562
309.592	3.587
311.092	3.611
312.592	3.635
314.092	3.659
315.592	3.682
317.092	3.707
318.592	3.731
320.092	3.756
321.592	3.782
323.092	3.808
324.592	3.834
326.092	3.861
327.592	3.887
329.092	3.914
330.592	3.94
332.092	3.966
333.592	3.992
335.092	4.017
336.833	4.044
338.333	4.064
339.833	4.078
341.333	4.088
342.833	4.093
344.333	4.096
345.833	4.097
347.333	4.1
348.806	4.103
350.306	4.112
351.806	4.119
353.306	4.125
354.806	4.13
356.306	4.133
357.806	4.133
359.306	4.128
360.806	4.119
362.306	4.103
363.806	4.081
365.306	4.054
366.77	4.02
368.27	3.992
369.77	3.973
371.27	3.958
372.77	3.945
374.27	3.931
375.77	3.914
377.27	3.892
378.77	3.863
380.27	3.824
381.741	3.77
383.241	3.71
384.741	3.63
386.241	3.539
387.741	3.439
