Uv/Vis Spectrum: Tert-butyl hypochlorite
Formula: C4H9ClO
CAS: 507-40-4
Boiling point: 77.5
Instrument: Beckman DU
Origin: INSTITUTE OF ENERGY PROBLEMS OF CHEMICAL PHYSICS, RAS
Wavelength (nm)	Logarithm epsilon
226.72	1.056
227.23	1.158
227.75	1.272
228.26	1.377
228.78	1.463
229.29	1.535
229.8	1.596
230.32	1.651
230.83	1.692
231.34	1.719
231.86	1.753
232.37	1.782
232.88	1.817
233.4	1.85
233.91	1.871
234.43	1.897
234.94	1.917
235.45	1.937
235.97	1.95
236.48	1.962
236.99	1.974
237.51	1.986
238.02	1.994
238.54	2.004
239.05	2.009
239.56	2.014
240.08	2.015
240.59	2.015
241.1	2.014
241.62	2.012
242.13	2.006
242.64	2.003
243.16	1.999
243.67	1.995
244.19	1.99
244.7	1.983
245.21	1.977
245.73	1.97
246.24	1.965
246.75	1.956
247.27	1.95
247.78	1.943
248.29	1.934
248.81	1.929
249.32	1.921
249.84	1.914
250.36	1.906
250.86	1.899
251.38	1.892
251.9	1.883
252.41	1.871
252.87	1.86
253.49	1.845
254	1.83
254.52	1.816
254.97	1.802
255.49	1.789
256	1.772
256.51	1.76
257.03	1.747
257.54	1.736
258.01	1.725
258.57	1.71
259.08	1.693
259.6	1.678
260.11	1.667
260.62	1.648
261.14	1.636
261.65	1.623
262.16	1.611
262.69	1.596
263.19	1.582
263.77	1.57
264.22	1.559
264.73	1.546
265.25	1.526
265.76	1.516
266.27	1.502
266.79	1.484
267.3	1.473
267.81	1.455
268.33	1.441
268.84	1.428
269.35	1.413
269.87	1.398
270.38	1.384
271.01	1.367
271.52	1.35
272.04	1.337
272.44	1.326
272.95	1.312
273.46	1.301
273.98	1.287
274.35	1.275
274.86	1.264
275.52	1.25
276.03	1.237
276.51	1.229
277.06	1.22
277.57	1.217
278.09	1.206
278.6	1.199
279.11	1.192
279.63	1.188
280.14	1.181
280.66	1.173
281.17	1.17
281.68	1.166
282.2	1.162
282.71	1.154
283.22	1.15
283.75	1.146
284.16	1.142
284.73	1.138
285.28	1.134
285.81	1.13
286.31	1.129
286.83	1.128
287.35	1.127
287.81	1.126
288.36	1.125
288.87	1.125
289.39	1.125
289.9	1.125
290.42	1.125
290.93	1.125
291.44	1.125
291.96	1.125
292.47	1.125
292.98	1.125
293.5	1.125
294.01	1.125
294.52	1.125
295.04	1.125
295.57	1.124
296.13	1.124
296.58	1.125
297.09	1.125
297.61	1.125
298.13	1.125
298.66	1.128
299.12	1.131
299.63	1.136
300.17	1.138
300.69	1.138
301.2	1.138
301.72	1.138
302.23	1.138
302.74	1.138
303.26	1.138
303.77	1.139
304.28	1.142
304.81	1.141
305.35	1.139
305.86	1.136
306.34	1.134
306.83	1.132
307.37	1.129
307.88	1.128
308.39	1.125
308.85	1.122
309.43	1.119
309.93	1.116
310.48	1.115
310.97	1.114
311.48	1.112
311.99	1.112
312.52	1.111
313.03	1.11
313.53	1.108
314.04	1.103
314.56	1.099
315.07	1.094
315.53	1.091
315.94	1.087
316.49	1.083
317.07	1.079
317.64	1.076
318.08	1.073
318.61	1.069
319.18	1.066
319.69	1.061
320.32	1.055
320.81	1.051
321.23	1.046
321.71	1.042
322.26	1.036
322.78	1.03
323.29	1.025
323.8	1.02
324.34	1.014
324.83	1.009
325.34	1.003
325.9	0.996
326.37	0.992
326.89	0.986
327.4	0.98
327.89	0.973
328.51	0.966
328.94	0.962
329.45	0.955
329.97	0.949
330.48	0.943
331.01	0.936
331.51	0.929
332.02	0.923
332.54	0.916
333.15	0.909
333.75	0.9
334.08	0.895
334.59	0.887
335.1	0.88
335.82	0.868
336.34	0.858
336.75	0.849
337.16	0.841
337.71	0.83
338.26	0.821
338.7	0.815
339.21	0.807
339.73	0.798
340.24	0.789
340.75	0.779
341.27	0.77
341.72	0.765
342.3	0.76
