Uv/Vis Spectrum: 7-amino-1,3-dimethyl-2,4(1H,3H)-pteridinedione-5-oxide
Formula: C8H9N5O3
CAS: 50787-00-3
Melting point: 338-340(dec.)
Instrument: unknown
Origin: INSTITUTE OF ENERGY PROBLEMS OF CHEMICAL PHYSICS, RAS
Wavelength (nm)	Logarithm epsilon
203.513	3.999
204.513	4.048
205.513	4.086
206.513	4.115
207.513	4.14
208.513	4.161
209.513	4.181
210.513	4.201
211.513	4.22
212.513	4.24
213.513	4.26
214.513	4.281
215.513	4.301
216.513	4.32
217.513	4.338
218.513	4.355
219.513	4.369
220.513	4.381
221.513	4.39
222.513	4.396
223.513	4.398
224.513	4.397
225.513	4.392
225.563	4.392
226.563	4.378
227.563	4.372
228.563	4.371
229.563	4.374
230.563	4.38
231.563	4.387
232.563	4.395
233.563	4.402
234.563	4.407
235.563	4.41
236.563	4.411
237.563	4.409
238.563	4.404
239.563	4.396
240.563	4.385
241.563	4.371
242.563	4.356
243.563	4.339
244.563	4.322
245.563	4.306
246.563	4.293
247.563	4.283
249.201	4.278
250.201	4.274
251.201	4.274
252.201	4.277
253.201	4.283
254.201	4.29
255.201	4.298
256.201	4.306
257.201	4.312
258.201	4.317
259.201	4.318
260.201	4.316
261.201	4.311
262.201	4.302
263.201	4.29
264.201	4.276
265.201	4.261
266.201	4.244
267.201	4.227
268.201	4.21
269.201	4.193
270.201	4.174
271.201	4.151
272.201	4.121
272.998	4.105
273.828	4.074
274.658	4.052
275.543	4.029
276.317	4.01
276.719	3.995
277.719	3.965
278.719	3.939
279.719	3.917
280.719	3.899
281.719	3.884
282.719	3.872
283.719	3.863
284.719	3.856
285.719	3.851
286.719	3.846
287.719	3.841
288.719	3.836
289.719	3.831
290.719	3.823
291.719	3.814
292.719	3.803
293.719	3.789
294.719	3.772
295.719	3.753
296.719	3.732
297.719	3.708
298.719	3.682
299.719	3.655
300.719	3.627
301.719	3.598
302.719	3.569
303.719	3.541
304.719	3.515
305.719	3.491
306.719	3.47
307.719	3.453
308.719	3.44
309.719	3.432
310.719	3.429
311.719	3.432
312.719	3.441
313.719	3.455
314.719	3.473
315.719	3.496
316.719	3.521
317.719	3.548
318.719	3.572
319.719	3.593
319.937	3.593
320.937	3.625
321.937	3.655
322.937	3.683
323.937	3.711
324.937	3.737
325.937	3.762
326.937	3.787
327.937	3.812
328.937	3.835
329.937	3.859
330.937	3.882
331.937	3.905
332.937	3.927
333.937	3.95
334.937	3.972
335.937	3.993
336.937	4.014
337.937	4.034
338.937	4.053
339.937	4.071
340.937	4.088
341.937	4.104
342.937	4.118
343.751	4.132
344.751	4.139
345.751	4.146
346.751	4.154
347.751	4.162
348.751	4.169
349.751	4.175
350.751	4.179
351.751	4.182
352.751	4.182
353.751	4.18
354.751	4.175
355.751	4.168
356.751	4.159
357.751	4.147
358.751	4.133
359.751	4.117
360.751	4.099
361.751	4.079
362.751	4.058
363.751	4.035
364.751	4.011
365.751	3.986
366.751	3.96
367.751	3.933
368.751	3.906
369.751	3.877
370.751	3.848
371.751	3.818
372.751	3.787
373.751	3.754
374.751	3.719
375.751	3.681
375.797	3.68
376.797	3.638
377.797	3.596
378.797	3.554
379.797	3.516
380.797	3.48
381.797	3.448
382.797	3.418
383.797	3.391
384.797	3.365
385.797	3.338
386.797	3.309
387.797	3.274
388.797	3.233
389.797	3.181
