Uv/Vis Spectrum: Propane, 2-bromo-2-methyl-
Formula: C4H9Br
CAS: 507-19-7
Boiling point: 73
Instrument: Zeiss PMQ II
Origin: INSTITUTE OF ENERGY PROBLEMS OF CHEMICAL PHYSICS, RAS
Wavelength (nm)	Logarithm epsilon
182.53	2.336
182.89	2.321
183.25	2.307
183.61	2.289
183.83	2.27
184.04	2.253
184.26	2.236
184.48	2.219
184.7	2.202
184.92	2.185
185.14	2.168
185.36	2.149
185.58	2.132
185.81	2.115
186.03	2.097
186.33	2.08
186.55	2.063
186.77	2.046
187.07	2.029
187.37	2.012
187.6	1.995
187.98	1.978
188.36	1.961
188.74	1.944
189.05	1.927
189.51	1.912
189.97	1.897
190.52	1.884
191.14	1.873
191.77	1.867
192.48	1.863
193.2	1.865
193.84	1.871
194.49	1.882
195.14	1.893
195.8	1.903
196.38	1.916
196.96	1.929
197.54	1.94
198.13	1.95
198.72	1.963
199.32	1.976
199.91	1.989
200.52	2.001
201.12	2.012
201.64	2.025
202.26	2.036
202.87	2.048
203.49	2.059
204.12	2.07
204.75	2.08
205.38	2.091
206.01	2.102
206.65	2.112
207.3	2.123
208.04	2.134
208.69	2.144
209.44	2.155
210.19	2.164
210.96	2.172
211.82	2.179
212.59	2.185
213.37	2.191
214.25	2.196
215.14	2.198
216.04	2.198
216.95	2.198
217.86	2.196
218.68	2.189
219.6	2.183
220.44	2.174
221.27	2.166
222.12	2.157
222.97	2.147
223.82	2.136
224.69	2.125
225.56	2.115
226.32	2.102
226.98	2.089
227.65	2.076
228.43	2.063
228.99	2.048
229.67	2.033
230.24	2.018
230.92	2.004
231.5	1.989
232.07	1.974
232.53	1.957
233.12	1.942
233.58	1.925
234.05	1.908
234.52	1.89
235.12	1.876
235.59	1.858
236.07	1.841
236.55	1.824
237.03	1.807
237.51	1.79
238	1.773
238.49	1.756
238.85	1.739
239.34	1.722
239.71	1.705
240.21	1.688
240.58	1.671
241.08	1.654
241.45	1.637
241.83	1.619
242.33	1.602
242.71	1.585
243.09	1.568
243.47	1.551
243.85	1.534
244.23	1.517
244.62	1.498
245.01	1.479
245.39	1.462
245.65	1.442
246.04	1.425
246.43	1.408
246.82	1.391
247.21	1.372
247.61	1.355
248	1.336
248.4	1.317
248.8	1.297
249.2	1.278
249.6	1.261
249.87	1.242
250.13	1.223
250.54	1.206
250.94	1.188
251.21	1.169
251.62	1.152
251.89	1.133
252.3	1.116
252.57	1.097
252.99	1.078
253.12	1.058
253.4	1.039
253.67	1.02
254.09	1.001
254.37	0.982
254.64	0.962
