Uv/Vis Spectrum: 5-(dimethylamino)-1-phenyl-2,4-pentadien-1-one
Formula: C13H15NO
CAS: 5089-00-9
Melting point: 117-118
Instrument: Beckman DK-2
Origin: INSTITUTE OF ENERGY PROBLEMS OF CHEMICAL PHYSICS, RAS
Wavelength (nm)	Logarithm epsilon
240.848	3.956
242.014	3.968
243.191	3.98
244.38	3.992
245.58	4.004
246.792	4.015
248.017	4.026
249.253	4.037
250.502	4.048
251.763	4.057
253.037	4.066
254.324	4.075
255.624	4.082
256.938	4.089
258.265	4.094
259.606	4.099
260.961	4.102
262.33	4.104
263.714	4.104
265.072	4.098
266.484	4.094
267.912	4.088
269.355	4.079
270.814	4.068
272.289	4.055
273.78	4.04
275.287	4.024
276.812	4.006
278.353	3.986
279.911	3.963
281.487	3.935
283.08	3.902
284.692	3.862
286.322	3.814
287.971	3.757
289.64	3.691
291.327	3.616
293.035	3.534
294.762	3.448
296.51	3.363
298.279	3.285
298.413	3.283
300.204	3.224
302.018	3.173
303.853	3.133
305.711	3.103
307.591	3.083
309.495	3.074
311.423	3.075
313.375	3.085
315.351	3.104
317.353	3.13
319.38	3.163
321.433	3.2
323.513	3.239
325.62	3.281
327.754	3.322
329.772	3.365
331.961	3.414
334.18	3.465
336.429	3.519
338.708	3.576
341.018	3.634
343.36	3.695
345.734	3.759
348.141	3.823
350.582	3.889
353.058	3.955
355.568	4.021
358.115	4.086
360.698	4.148
363.319	4.207
365.979	4.263
368.677	4.314
371.416	4.361
374.196	4.402
377.017	4.439
379.882	4.472
382.79	4.504
385.743	4.535
388.115	4.56
391.151	4.584
394.235	4.601
397.368	4.613
400.552	4.622
403.786	4.628
407.074	4.631
410.415	4.629
413.812	4.618
417.265	4.594
420.777	4.553
424.348	4.488
427.98	4.396
431.675	4.275
435.362	4.143
439.186	4.031
443.078	3.922
447.039	3.794
451.072	3.645
455.179	3.495
459.361	3.368
463.62	3.273
467.959	3.17
