Uv/Vis Spectrum: Benzoic acid, 2,4-dichloro-
Formula: C7H4Cl2O2
CAS: 50-84-0
Melting point: 164.2
Boiling point: sub
Instrument: n.i.g.
Origin: INSTITUTE OF ENERGY PROBLEMS OF CHEMICAL PHYSICS, RAS
Wavelength (nm)	Logarithm epsilon
237.65	3.85001
237.724	3.84014
237.863	3.83082
238.005	3.81924
238.141	3.80693
238.284	3.79331
238.429	3.77792
238.576	3.75951
238.712	3.74583
238.854	3.73116
239.004	3.70742
239.143	3.69532
239.279	3.68575
239.409	3.67708
239.543	3.67064
239.678	3.66166
239.814	3.65315
239.941	3.64634
240.075	3.63942
240.208	3.63308
240.342	3.62525
240.47	3.61863
240.603	3.61197
240.735	3.60653
240.867	3.60169
241.001	3.59333
241.128	3.58696
241.261	3.57972
241.394	3.57315
241.527	3.56568
241.654	3.55889
241.786	3.55348
241.917	3.54801
242.049	3.54254
242.175	3.53615
242.307	3.53045
242.439	3.52556
242.57	3.5198
242.697	3.51307
242.828	3.50788
242.959	3.50273
243.092	3.49572
243.224	3.48955
243.349	3.4832
243.481	3.47685
243.612	3.47221
243.742	3.46842
243.867	3.46369
243.998	3.459
244.129	3.45416
244.259	3.45021
244.384	3.44528
244.515	3.44038
244.645	3.43631
244.777	3.43022
244.908	3.42505
245.032	3.41981
245.163	3.41564
245.294	3.41029
245.424	3.40488
245.549	3.40056
245.68	3.39502
245.811	3.38941
245.941	3.38494
246.066	3.3792
246.197	3.37338
246.327	3.36748
246.458	3.36277
246.589	3.35673
246.713	3.35309
246.844	3.3469
246.974	3.34185
247.104	3.33686
247.229	3.33043
247.359	3.32531
247.49	3.31999
247.62	3.31603
247.744	3.3106
247.875	3.30391
248.067	3.29833
248.197	3.29417
248.326	3.29133
248.58	3.28283
248.709	3.27992
248.839	3.27557
248.969	3.27275
249.092	3.26819
249.222	3.26373
249.352	3.26083
249.481	3.25777
249.611	3.25468
249.734	3.25157
249.863	3.24859
249.993	3.24544
250.122	3.24227
250.246	3.23907
250.442	3.23602
250.566	3.23277
250.824	3.22795
250.954	3.22465
251.077	3.22131
251.335	3.21636
251.527	3.21134
251.717	3.20792
251.908	3.20464
252.166	3.20118
252.486	3.196
252.737	3.19247
253.057	3.18892
253.633	3.18557
254.011	3.18912
254.457	3.19111
254.964	3.19652
255.214	3.20012
255.599	3.20188
255.916	3.20712
256.105	3.20881
256.482	3.21576
256.738	3.21921
256.927	3.22246
257.116	3.22426
257.305	3.2292
257.494	3.23081
257.683	3.23413
257.871	3.23897
258.188	3.24378
258.315	3.24699
258.504	3.25019
258.76	3.25486
258.887	3.25799
259.264	3.26551
259.64	3.27603
259.768	3.27901
259.895	3.28337
260.022	3.28616
260.21	3.29196
260.459	3.29903
260.646	3.30598
260.774	3.30863
260.901	3.3127
261.028	3.31686
261.148	3.32213
261.276	3.32481
261.403	3.32873
261.53	3.33262
261.718	3.3377
261.845	3.34029
261.966	3.3454
262.093	3.34783
262.22	3.35155
262.347	3.35535
262.468	3.35901
262.723	3.36623
262.977	3.3722
263.165	3.37684
263.352	3.38266
263.479	3.3861
263.727	3.39288
263.854	3.39623
263.982	3.3985
264.103	3.40181
264.23	3.40509
264.357	3.40835
264.545	3.41274
264.672	3.41594
264.799	3.41912
264.92	3.42228
265.047	3.42542
265.175	3.42753
265.301	3.43172
265.429	3.4337
265.549	3.43783
265.677	3.43989
265.804	3.4429
265.931	3.44589
266.179	3.45086
266.307	3.4538
266.555	3.45961
266.748	3.46342
266.997	3.4692
267.184	3.47381
267.499	3.48035
267.626	3.48309
267.753	3.48582
267.874	3.48853
268.068	3.49217
268.255	3.49571
268.504	3.50099
268.631	3.50369
268.818	3.50713
269.006	3.51144
269.26	3.51573
269.636	3.52247
269.763	3.52496
269.89	3.52744
270.017	3.5299
270.958	3.54288
271.214	3.54527
271.342	3.54604
271.719	3.55001
271.908	3.55078
272.163	3.5532
272.352	3.55471
272.792	3.55631
273.746	3.55714
274.255	3.5557
274.574	3.55417
274.765	3.55261
275.084	3.55032
275.404	3.54725
275.534	3.54567
275.916	3.54097
276.046	3.53937
276.175	3.53776
276.495	3.5346
276.618	3.53297
276.748	3.53055
277.199	3.52401
277.39	3.52066
277.711	3.51738
277.841	3.51487
278.162	3.5089
278.354	3.50552
278.484	3.50202
278.607	3.50034
278.738	3.4968
278.868	3.49417
278.998	3.49066
279.122	3.48799
279.252	3.48434
279.445	3.47979
279.575	3.47616
279.767	3.47061
279.96	3.4649
280.091	3.4592
280.222	3.45437
280.354	3.44853
280.479	3.44261
280.61	3.43758
280.741	3.43151
280.872	3.42636
281.004	3.41901
281.129	3.41267
281.26	3.40624
281.392	3.3997
281.523	3.39416
281.648	3.38744
281.779	3.38062
281.91	3.37482
282.041	3.36779
282.167	3.35937
282.298	3.35209
282.43	3.34469
282.561	3.33838
282.693	3.32937
282.818	3.32156
282.949	3.31491
283.081	3.30406
283.213	3.29294
283.339	3.28305
283.471	3.27137
283.603	3.26083
283.735	3.25018
283.861	3.2391
283.992	3.22947
284.124	3.21623
284.256	3.20424
284.388	3.19209
284.514	3.17941
284.646	3.16653
284.777	3.15306
284.909	3.13917
285.036	3.12281
285.167	3.11018
285.299	3.09267
285.431	3.07912
285.556	3.06283
285.688	3.04806
285.82	3.02779
285.952	3.00941
286.083	2.99294
286.208	2.97863
286.339	2.96384
286.47	2.94551
286.601	2.93266
286.726	2.91293
286.857	2.89568
286.987	2.88158
287.118	2.85933
287.243	2.8436
287.374	2.82329
287.504	2.80659
287.635	2.78879
287.759	2.76567
287.957	2.74177
288.082	2.72103
288.212	2.69979
288.342	2.67689
288.472	2.65921
288.597	2.63462
288.727	2.6079
288.858	2.58012
288.988	2.54211
289.18	2.5005
289.311	2.46461
289.436	2.41431
289.633	2.36908
289.758	2.31975
289.888	2.2784
290.018	2.21515
290.21	2.12152
