Uv/Vis Spectrum: Thymidine
Formula: C10H14N2O5
CAS: 50-89-5
Melting point: 186.5
Instrument: Beckman DU
Origin: INSTITUTE OF ENERGY PROBLEMS OF CHEMICAL PHYSICS, RAS
Wavelength (nm)	Logarithm epsilon
216.89	4.026
216.99	4.025
217.09	4.025
217.19	4.024
217.29	4.024
217.7	4.021
218.11	4.017
218.51	4.014
218.92	4.01
219.33	4.006
219.74	4.003
220.14	3.999
220.55	3.995
220.96	3.991
221.36	3.987
221.77	3.984
222.18	3.98
222.58	3.976
222.99	3.97
223.4	3.966
223.8	3.962
224.21	3.958
224.62	3.953
225.03	3.949
225.43	3.943
225.84	3.938
226.25	3.933
226.65	3.928
227.06	3.922
227.47	3.916
227.87	3.911
228.28	3.904
228.69	3.899
229.09	3.891
229.5	3.885
229.91	3.878
230.32	3.87
230.72	3.862
231.13	3.855
231.54	3.847
231.94	3.838
232.35	3.83
232.76	3.822
233.16	3.814
233.57	3.807
233.98	3.797
234.38	3.789
234.79	3.782
235.2	3.775
235.61	3.766
236.01	3.757
236.42	3.749
236.83	3.742
237.23	3.735
237.64	3.728
238.05	3.719
238.45	3.714
238.86	3.709
239.27	3.703
239.67	3.699
240.08	3.695
240.49	3.691
240.9	3.688
241.3	3.685
241.71	3.683
242.12	3.681
242.52	3.679
242.93	3.679
243.34	3.678
243.74	3.678
244.15	3.679
244.56	3.68
244.96	3.682
245.37	3.684
245.78	3.685
246.19	3.688
246.59	3.691
247	3.694
247.41	3.699
247.81	3.7
248.22	3.707
248.63	3.711
249.03	3.715
249.44	3.72
249.85	3.725
250.25	3.729
250.66	3.735
251.07	3.74
251.48	3.747
251.88	3.753
252.29	3.759
252.7	3.764
253.1	3.771
253.51	3.777
253.92	3.782
254.32	3.79
254.73	3.794
255.14	3.8
255.54	3.805
255.95	3.81
256.36	3.816
256.77	3.822
257.17	3.828
257.58	3.83
257.99	3.835
258.39	3.84
258.8	3.844
259.21	3.849
259.61	3.852
260.02	3.855
260.43	3.858
260.83	3.861
261.24	3.863
262.05	3.868
262.46	3.87
262.87	3.871
263.28	3.872
263.68	3.873
264.09	3.873
264.5	3.874
264.9	3.873
265.31	3.873
265.72	3.872
266.12	3.87
266.53	3.868
266.94	3.865
267.34	3.863
267.75	3.859
268.16	3.855
268.57	3.851
268.97	3.847
269.38	3.841
269.79	3.836
270.19	3.83
270.6	3.824
271.01	3.818
271.41	3.812
271.82	3.805
272.23	3.795
272.63	3.787
273.04	3.779
273.45	3.772
273.86	3.763
274.26	3.753
274.67	3.744
275.08	3.735
275.48	3.723
275.89	3.711
276.3	3.698
276.7	3.68
277.11	3.669
277.52	3.652
277.92	3.638
278.33	3.62
278.74	3.604
279.15	3.587
279.55	3.577
279.96	3.558
280.37	3.542
280.77	3.522
281.18	3.497
281.59	3.475
281.99	3.454
282.4	3.433
282.81	3.411
283.21	3.384
283.62	3.361
284.03	3.329
284.44	3.303
284.84	3.275
285.25	3.246
285.66	3.22
286.06	3.183
286.47	3.143
286.88	3.123
287.28	3.096
287.69	3.054
288.1	3.021
288.5	2.991
288.91	2.957
289.32	2.927
289.73	2.894
290.13	2.864
290.54	2.832
290.95	2.798
291.35	2.769
291.76	2.737
292.17	2.712
292.57	2.676
292.98	2.646
293.39	2.626
293.79	2.593
294.2	2.569
