Uv/Vis Spectrum: 4-(4'-methylphenyl)azo-1-naphthol
Formula: C17H14N2O
CAS: 5098-99-7
Melting point: 209-210
Instrument: Shimadzu MPS-50 L
Origin: INSTITUTE OF ENERGY PROBLEMS OF CHEMICAL PHYSICS, RAS
Wavelength (nm)	Logarithm epsilon
304.891	3.863
306.891	3.841
308.891	3.821
310.891	3.803
312.891	3.787
314.891	3.774
316.891	3.762
318.891	3.752
320.891	3.743
322.891	3.735
324.891	3.729
326.891	3.724
328.891	3.72
330.891	3.717
332.891	3.715
334.891	3.714
336.891	3.713
338.891	3.713
340.891	3.714
342.891	3.716
344.891	3.719
346.891	3.722
348.891	3.726
350.891	3.732
352.891	3.738
354.891	3.746
356.891	3.755
358.891	3.766
360.891	3.778
363.704	3.799
365.704	3.817
367.704	3.838
369.704	3.86
371.704	3.883
373.704	3.904
375.704	3.924
377.704	3.943
379.704	3.959
381.704	3.974
383.704	3.988
385.704	3.999
387.704	4.01
389.704	4.019
391.704	4.027
393.704	4.034
395.704	4.04
397.704	4.045
399.704	4.048
401.704	4.049
403.704	4.047
405.704	4.044
407.704	4.039
409.704	4.031
411.704	4.023
413.704	4.013
415.704	4.004
417.235	4.002
419.235	3.992
421.235	3.984
423.235	3.979
425.235	3.975
427.235	3.973
429.235	3.973
431.235	3.974
433.235	3.977
435.235	3.981
437.235	3.987
439.235	3.993
441.235	4.001
443.235	4.01
445.235	4.02
447.235	4.031
449.235	4.043
451.235	4.055
453.235	4.068
455.235	4.081
457.235	4.094
459.235	4.106
461.235	4.119
463.235	4.131
465.235	4.142
467.235	4.152
468.652	4.157
470.652	4.166
472.652	4.174
474.652	4.182
476.652	4.189
478.652	4.195
480.652	4.2
482.652	4.204
484.652	4.207
486.652	4.209
488.652	4.209
490.652	4.208
492.652	4.205
494.652	4.201
496.652	4.196
498.652	4.189
500.652	4.18
502.652	4.17
504.652	4.159
506.652	4.146
508.652	4.132
510.652	4.117
512.652	4.101
514.652	4.083
516.652	4.065
518.652	4.045
520.652	4.025
524.774	3.971
526.774	3.935
528.774	3.899
530.774	3.864
532.774	3.828
534.774	3.792
536.774	3.753
538.774	3.713
540.774	3.671
542.774	3.625
544.774	3.576
546.774	3.523
548.774	3.466
550.774	3.404
552.774	3.337
554.774	3.264
556.774	3.184
558.774	3.098
560.774	3.004
562.774	2.903
564.774	2.793
566.774	2.675
568.774	2.547
