Uv/Vis Spectrum: (S)-alpha-mrthyl-3-pyridinemethanol
Formula: C7H9NO
CAS: 5096-11-7
Boiling point: 140-143/15mm
Instrument: Unicam SP 700
Origin: INSTITUTE OF ENERGY PROBLEMS OF CHEMICAL PHYSICS, RAS
Wavelength (nm)	Logarithm epsilon
239.606	2.673
240.106	2.731
240.606	2.779
241.106	2.818
241.606	2.851
242.106	2.879
242.606	2.903
243.106	2.924
243.606	2.943
244.106	2.961
244.606	2.978
245.106	2.996
245.606	3.014
246.106	3.032
246.606	3.051
247.189	3.074
247.689	3.09
248.189	3.109
248.689	3.13
249.189	3.15
249.689	3.167
250.189	3.18
250.689	3.19
251.189	3.196
251.689	3.199
252.189	3.201
252.73	3.205
253.23	3.213
253.73	3.223
254.23	3.237
254.73	3.253
255.23	3.271
255.248	3.271
255.748	3.289
256.248	3.31
256.748	3.328
257.248	3.339
257.748	3.341
258.248	3.337
258.748	3.329
259.246	3.323
259.746	3.324
260.246	3.324
260.746	3.327
261.246	3.333
261.83	3.345
262.33	3.354
262.83	3.365
263.33	3.372
263.83	3.373
264.33	3.367
264.83	3.353
265.329	3.334
265.829	3.312
266.329	3.284
266.829	3.258
267.329	3.239
267.829	3.23
268.329	3.23
268.829	3.237
269.237	3.241
269.737	3.249
270.237	3.254
270.737	3.253
271.237	3.243
271.737	3.22
272.237	3.186
272.737	3.139
273.237	3.081
273.737	3.016
274.195	2.957
274.695	2.862
275.195	2.757
275.695	2.64
276.195	2.51
276.695	2.366
