Uv/Vis Spectrum: 4-(2-Phenylvinyl)pyridine, trans
Formula: C13H11N
CAS: 5097-93-8
Melting point: 127
Instrument: Unicam SP 700
Origin: INSTITUTE OF ENERGY PROBLEMS OF CHEMICAL PHYSICS, RAS
Wavelength (nm)	Logarithm epsilon
200.98	4.368
201.06	4.366
201.15	4.364
201.24	4.364
201.32	4.362
201.41	4.36
201.5	4.358
201.58	4.356
201.67	4.353
201.76	4.351
201.84	4.349
201.93	4.347
202.02	4.345
202.11	4.343
202.19	4.341
202.46	4.33
202.98	4.306
203.52	4.279
204.05	4.249
204.58	4.206
205.12	4.166
205.66	4.127
206.21	4.091
206.76	4.059
207.31	4.029
207.86	4.003
208.42	3.98
208.98	3.959
209.54	3.946
210.1	3.935
210.67	3.927
211.24	3.92
211.82	3.916
212.4	3.916
212.98	3.918
213.45	3.92
214.1	3.924
214.71	3.929
215.28	3.934
215.93	3.939
216.53	3.946
217.13	3.956
217.74	3.967
218.35	3.982
218.96	4.001
219.58	4.02
220.2	4.035
220.83	4.05
221.45	4.061
222.09	4.074
222.72	4.082
223.36	4.087
224	4.093
224.65	4.095
225.3	4.102
225.95	4.104
226.61	4.11
227.27	4.119
227.94	4.123
228.6	4.129
229.28	4.129
229.95	4.123
230.64	4.112
231.32	4.091
232.01	4.07
232.7	4.055
233.4	4.04
234.1	4.029
234.81	4.027
235.52	4.027
236.23	4.027
236.6	4.023
236.95	4.01
237.67	3.956
238.4	3.877
239.13	3.799
239.87	3.7
240.1	3.678
241.04	3.593
242.11	3.523
242.86	3.468
243.62	3.427
244.39	3.397
245.16	3.385
245.93	3.376
246.71	3.376
247.48	3.382
248.21	3.391
248.95	3.402
249.63	3.412
250.56	3.426
251.48	3.441
252.29	3.458
253.12	3.478
253.95	3.498
254.78	3.521
255.62	3.545
256.46	3.57
257.3	3.594
258.16	3.621
259.02	3.643
259.88	3.67
260.75	3.696
261.63	3.724
262.51	3.749
263.4	3.777
264.29	3.807
265.19	3.835
266.1	3.86
267.01	3.886
267.93	3.912
268.85	3.931
269.78	3.956
270.72	3.982
271.67	4.003
272.62	4.029
273.57	4.052
274.54	4.074
275.51	4.095
276.49	4.117
277.47	4.136
278.46	4.157
279.46	4.178
280.47	4.195
281.48	4.217
282.51	4.234
283.53	4.251
284.57	4.264
285.61	4.281
286.66	4.296
287.72	4.313
288.79	4.328
289.87	4.343
290.95	4.356
292.04	4.368
293.14	4.383
294.25	4.396
295.36	4.409
296.49	4.415
297.62	4.424
298.76	4.432
299.91	4.441
301.07	4.445
302.24	4.445
303.42	4.443
304.6	4.441
305.8	4.441
307	4.445
308.22	4.449
309.44	4.458
310.68	4.454
311.92	4.443
313.18	4.432
314.44	4.417
315.72	4.4
317	4.373
318.3	4.351
319.6	4.332
320.92	4.317
322.25	4.298
323.59	4.279
324.94	4.255
326.3	4.208
327.67	4.163
329.06	4.102
330.45	4.02
331.86	3.924
333.28	3.826
334.71	3.713
336.16	3.585
337.61	3.457
338.5	3.38
338.97	3.336
339.37	3.295
339.71	3.261
339.94	3.232
340.23	3.201
340.57	3.172
341.15	3.116
341.6	3.076
342.56	2.962
343.57	2.862
344.59	2.755
