Uv/Vis Spectrum: 1,1,3,4,4,5,5,6-octachloro-4,5-dihydro-2(1H)-pentalenone
Formula: C8Cl8O
CAS: 51075-70-8
Melting point: 59-60
Instrument: Hitachi EPS-20
Origin: INSTITUTE OF ENERGY PROBLEMS OF CHEMICAL PHYSICS, RAS
Wavelength (nm)	Logarithm epsilon
212.27	3.913
213.27	3.897
214.27	3.88
215.27	3.864
216.27	3.847
217.27	3.831
218.27	3.815
219.27	3.8
220.27	3.785
221.27	3.772
222.27	3.76
223.27	3.749
224.27	3.739
225.27	3.731
226.27	3.724
227.27	3.719
228.27	3.716
229.27	3.714
230.27	3.713
231.27	3.714
232.27	3.717
233.27	3.721
234.27	3.727
235.27	3.734
236.27	3.743
237.27	3.752
238.27	3.763
239.27	3.776
240.27	3.789
241.27	3.803
242.27	3.818
243.27	3.834
244.27	3.85
245.27	3.867
246.27	3.884
247.27	3.902
248.27	3.919
249.27	3.937
250.27	3.955
251.27	3.973
252.27	3.99
253.27	4.008
254.27	4.024
255.27	4.041
255.339	4.043
256.339	4.057
257.339	4.071
258.339	4.085
259.339	4.098
260.339	4.11
261.339	4.121
262.339	4.131
263.339	4.139
264.339	4.146
265.339	4.152
266.339	4.157
267.339	4.16
268.339	4.162
269.339	4.162
270.339	4.161
271.339	4.16
272.339	4.157
273.339	4.153
274.339	4.148
275.339	4.143
276.339	4.137
277.339	4.13
278.339	4.122
279.48	4.11
280.48	4.098
281.48	4.089
282.48	4.081
283.48	4.073
284.48	4.064
285.48	4.054
286.48	4.042
287.48	4.029
288.48	4.016
289.48	4.002
290.48	3.99
291.48	3.979
292.48	3.971
293.48	3.966
294.48	3.964
295.48	3.965
296.48	3.969
297.48	3.976
298.48	3.984
299.401	3.991
300.401	3.997
301.401	4.003
302.401	4.007
303.401	4.011
304.401	4.014
305.401	4.016
306.401	4.018
307.401	4.018
308.401	4.018
309.401	4.018
310.401	4.016
311.401	4.014
312.401	4.012
313.401	4.009
314.401	4.005
315.401	4
316.401	3.995
317.401	3.988
318.401	3.979
319.401	3.968
320.401	3.954
321.401	3.938
322.401	3.917
323.442	3.899
324.478	3.88
325.478	3.862
326.478	3.839
327.478	3.812
328.478	3.782
329.478	3.749
330.478	3.714
331.478	3.678
332.478	3.64
333.478	3.602
334.478	3.564
335.478	3.527
336.478	3.489
337.478	3.452
338.478	3.416
339.478	3.381
340.478	3.347
341.478	3.314
342.478	3.283
343.478	3.252
344.478	3.223
345.478	3.195
346.478	3.168
347.478	3.143
348.478	3.119
