Uv/Vis Spectrum: N-(1H-indol-3-yl)acetamide
Formula: C10H10N2O
CAS: 51030-59-2
Melting point: 162-163
Instrument: Specord Uv-Vis
Origin: INSTITUTE OF ENERGY PROBLEMS OF CHEMICAL PHYSICS, RAS
Wavelength (nm)	Logarithm epsilon
214.597	4.31
215.597	4.316
216.597	4.328
217.597	4.341
218.597	4.355
219.597	4.37
220.597	4.383
221.597	4.395
222.597	4.406
223.597	4.415
224.597	4.424
225.597	4.431
226.597	4.438
227.597	4.443
228.597	4.447
229.597	4.45
230.597	4.449
231.597	4.443
232.597	4.43
233.597	4.407
234.435	4.379
235.435	4.322
236.435	4.262
237.435	4.203
238.435	4.147
239.435	4.094
240.435	4.046
241.435	4.005
242.435	3.973
243.435	3.949
244.269	3.938
245.269	3.936
246.269	3.936
247.269	3.936
248.269	3.938
249.269	3.94
250.269	3.943
251.269	3.946
252.269	3.948
253.269	3.95
254.269	3.952
255.269	3.953
256.269	3.954
257.269	3.954
258.269	3.953
259.269	3.951
260.269	3.949
261.269	3.946
262.269	3.942
263.269	3.938
264.269	3.933
265.269	3.928
266.269	3.922
267.269	3.916
268.269	3.909
269.269	3.902
270.269	3.896
271.269	3.888
272.269	3.881
273.269	3.874
274.269	3.867
275.269	3.861
276.269	3.854
277.269	3.847
278.269	3.841
279.269	3.834
280.269	3.828
281.269	3.821
282.269	3.815
283.269	3.809
284.269	3.802
285.269	3.795
286.269	3.788
287.269	3.779
288.269	3.771
289.269	3.761
290.269	3.75
291.235	3.735
292.235	3.725
293.235	3.713
294.235	3.699
295.235	3.684
296.235	3.667
297.235	3.65
298.235	3.631
299.235	3.613
300.235	3.594
301.235	3.574
302.235	3.553
303.235	3.532
304.235	3.511
305.235	3.488
306.235	3.464
307.235	3.439
308.235	3.412
309.235	3.384
310.235	3.353
311.235	3.32
312.235	3.285
313.235	3.247
314.235	3.207
315.235	3.163
316.235	3.116
317.235	3.066
318.235	3.012
319.235	2.955
320.235	2.895
321.235	2.831
322.235	2.765
