Uv/Vis Spectrum: 2,3,3a,4,5,6a-hexachloro-3a,6a-dihydro-1,6-pentalenedione
Formula: C8Cl6O2
CAS: 51075-67-3
Melting point: 120-122
Instrument: Hitachi EPS-20
Origin: INSTITUTE OF ENERGY PROBLEMS OF CHEMICAL PHYSICS, RAS
Wavelength (nm)	Logarithm epsilon
210.799	3.976
210.837	3.976
211.734	3.988
212.632	3.994
213.786	3.994
215.197	3.976
217.197	3.972
219.197	3.977
221.197	3.987
223.197	4.003
225.197	4.03
227.197	4.065
229.174	4.1
231.174	4.119
232.764	4.12
235.204	4.12
237.374	4.107
239.174	4.09
240.458	4.074
241.612	4.054
242.664	4.031
244.154	4.008
246.036	3.995
248.036	3.993
250.036	3.989
252.036	3.982
254.034	3.97
256.034	3.947
258.034	3.942
259.735	3.94
261.871	3.938
264.003	3.918
265.113	3.877
265.924	3.823
266.564	3.768
267.005	3.715
267.545	3.662
268.356	3.587
269.167	3.52
270.518	3.459
272.139	3.422
274.139	3.4
276.139	3.386
278.139	3.378
280.139	3.372
282.139	3.366
284.139	3.356
286.139	3.342
288.139	3.321
290.139	3.291
292.139	3.251
294.139	3.199
296.139	3.133
298.139	3.052
300.139	2.954
302.139	2.837
304.13	2.699
306.13	2.571
308.13	2.459
310.13	2.366
312.13	2.293
314.13	2.239
316.13	2.201
318.13	2.175
320.13	2.158
322.13	2.147
324.13	2.139
326.13	2.131
328.13	2.122
330.298	2.116
332.298	2.104
334.298	2.093
336.298	2.083
338.298	2.074
340.298	2.065
342.298	2.057
344.298	2.046
346.298	2.033
348.298	2.015
350.525	1.987
352.525	1.952
354.525	1.928
356.525	1.911
358.525	1.901
360.525	1.895
362.525	1.892
364.525	1.889
366.739	1.886
368.739	1.879
370.739	1.871
372.739	1.86
374.739	1.848
376.739	1.834
378.739	1.817
380.739	1.796
