Uv/Vis Spectrum: Thiocyanic acid, 1,2-dihydro-2-oxo-1-beta-D-ribofuranosyl-4-pyrimidinyl ester
Formula: C10H11N3O5S
CAS: 51056-62-3
Instrument: Cary 14 PM
Origin: INSTITUTE OF ENERGY PROBLEMS OF CHEMICAL PHYSICS, RAS
Wavelength (nm)	Logarithm epsilon
220.586	4.01
222.086	3.968
223.586	3.915
225.086	3.854
226.586	3.788
228.097	3.721
229.597	3.667
231.097	3.624
232.597	3.603
234.097	3.606
235.597	3.625
237.097	3.654
238.737	3.685
240.237	3.721
241.737	3.752
243.237	3.779
244.737	3.802
246.237	3.818
247.737	3.83
249.237	3.835
250.737	3.835
252.237	3.831
253.737	3.823
255.237	3.812
256.737	3.798
258.237	3.781
259.737	3.76
261.062	3.737
262.562	3.697
264.062	3.653
265.562	3.606
267.062	3.56
268.562	3.517
270.062	3.48
271.562	3.451
273.062	3.432
274.562	3.422
276.062	3.423
277.562	3.432
279.062	3.448
280.562	3.469
282.062	3.493
283.562	3.52
285.062	3.549
286.562	3.58
288.224	3.621
289.724	3.655
291.224	3.687
292.724	3.719
294.224	3.749
295.724	3.776
297.224	3.802
298.724	3.825
300.224	3.846
301.724	3.864
303.224	3.879
304.724	3.892
306.124	3.902
307.574	3.909
309.287	3.909
310.803	3.904
312.253	3.895
313.724	3.883
315.224	3.869
316.724	3.855
318.224	3.841
319.724	3.823
321.224	3.796
322.724	3.757
324.28	3.717
325.78	3.67
327.28	3.611
328.78	3.543
330.28	3.465
331.78	3.378
333.28	3.281
334.78	3.173
336.28	3.056
337.78	2.928
339.28	2.793
340.78	2.653
342.28	2.517
343.78	2.399
345.28	2.31
346.78	2.249
348.28	2.19
349.78	2.065
