Uv/Vis Spectrum: Benzimidazole
Formula: C7H6N2
CAS: 51-17-2
Melting point: 170.5
Boiling point: > 360
Instrument: Beckman DU
Origin: INSTITUTE OF ENERGY PROBLEMS OF CHEMICAL PHYSICS, RAS
Wavelength (nm)	Logarithm epsilon
206.263	4.10485
206.388	4.10298
206.653	4.09716
207.425	4.06995
207.549	4.06623
207.673	4.06227
208.322	4.0411
208.447	4.039
208.571	4.03528
208.711	4.03341
208.834	4.0276
209.343	4.0083
209.607	4.00248
209.856	3.99666
210.751	3.96364
210.89	3.95806
211.013	3.9541
211.786	3.92713
211.908	3.91923
212.802	3.88459
212.94	3.87878
213.448	3.85763
213.573	3.85553
213.712	3.84972
213.836	3.84599
213.96	3.84413
214.466	3.81903
214.605	3.81322
214.729	3.80927
214.852	3.80346
215.374	3.78022
215.742	3.76093
215.996	3.73587
216.121	3.734
216.259	3.72634
216.381	3.71867
216.759	3.68965
216.882	3.68384
217.258	3.65111
217.381	3.64531
217.751	3.59913
217.887	3.58938
218.258	3.54506
218.382	3.54134
218.501	3.52973
218.619	3.51419
218.758	3.50838
219.135	3.4775
219.257	3.46984
219.381	3.46612
219.514	3.44871
219.633	3.43526
219.64	3.45056
219.757	3.43316
220.141	3.41387
220.404	3.40619
220.528	3.40224
221.553	3.37732
223.513	3.36737
223.64	3.36921
223.908	3.37126
225.222	3.39036
225.351	3.39614
225.494	3.39798
226.42	3.42662
226.675	3.43239
226.818	3.43632
226.945	3.43816
227.073	3.44208
228.391	3.46883
228.534	3.47067
228.66	3.47274
228.931	3.47851
230.248	3.5034
230.643	3.50706
232.356	3.53585
232.482	3.53769
233.005	3.54528
233.399	3.54733
233.526	3.54917
233.668	3.55101
233.795	3.55308
233.923	3.55677
234.191	3.55883
234.837	3.56061
235.373	3.56426
235.5	3.56634
235.768	3.56816
237.601	3.58534
237.995	3.58716
238.247	3.58898
238.516	3.59104
241.002	3.59656
243.486	3.59629
244.913	3.58825
245.305	3.58635
245.823	3.58444
248.429	3.5765
248.695	3.57438
250.783	3.56835
251.57	3.57036
253.27	3.57388
253.916	3.57589
254.184	3.57772
254.578	3.57953
254.83	3.58159
255.099	3.58341
256.284	3.59673
256.411	3.59856
257.062	3.61009
258.381	3.63892
258.525	3.64261
258.651	3.64468
258.778	3.64652
259.843	3.66959
260.24	3.67719
261.284	3.68867
263.104	3.68267
264.292	3.69993
264.439	3.70942
264.7	3.72863
264.829	3.73441
264.974	3.74205
265.241	3.77285
265.386	3.77863
265.512	3.78047
265.643	3.79019
266.049	3.81518
266.192	3.81887
267.107	3.82457
267.232	3.8227
267.356	3.81875
267.998	3.78228
268.118	3.77253
268.37	3.74167
268.49	3.73007
268.743	3.70315
268.86	3.68574
269.113	3.65697
269.228	3.63563
269.343	3.61452
269.46	3.59712
269.584	3.56257
269.707	3.55676
269.813	3.51826
270.735	3.50657
270.987	3.5084
271.783	3.52755
271.806	3.57391
271.823	3.6066
271.959	3.62768
271.978	3.66431
272.147	3.7183
272.276	3.72385
272.423	3.76626
272.565	3.79893
272.71	3.80471
273.507	3.82595
273.632	3.82385
274.132	3.7874
274.242	3.75655
274.257	3.7853
274.364	3.71806
274.382	3.75445
274.487	3.71225
274.592	3.67167
274.776	3.50798
274.812	3.57938
274.836	3.62551
274.878	3.46183
274.89	3.48502
274.917	3.53879
275.014	3.45023
275.028	3.4792
275.137	3.44627
275.257	3.4349
275.39	3.4175
275.506	3.39824
275.624	3.3827
275.721	3.32682
275.739	3.36159
275.853	3.30756
275.966	3.28251
276.068	3.23637
276.202	3.22105
276.327	3.21895
276.44	3.1939
276.574	3.17859
276.807	3.14379
276.944	3.13427
277.053	3.10157
277.176	3.09576
277.546	3.05144
277.664	3.0359
277.919	3.01083
278.042	3.00502
278.417	2.97044
278.54	2.96463
278.793	2.93562
278.915	2.92982
279.055	2.92609
279.177	2.91843
279.556	2.89126
279.677	2.88174
279.817	2.87779
279.938	2.87012
