Uv/Vis Spectrum: 6-methoxy-2-naphthalenol
Formula: C11H10O2
CAS: 5111-66-0
Melting point: 150-151
Instrument: SF-16
Origin: INSTITUTE OF ENERGY PROBLEMS OF CHEMICAL PHYSICS, RAS
Wavelength (nm)	Logarithm epsilon
214.476	4.563
216.476	4.6
218.476	4.661
220.476	4.723
222.476	4.779
224.476	4.833
226.476	4.883
228.476	4.916
230.476	4.894
231.448	4.844
232.391	4.759
233.333	4.667
233.844	4.552
234.844	4.436
235.844	4.33
236.844	4.232
237.844	4.142
238.991	4.051
240.991	3.921
242.991	3.831
244.991	3.773
246.991	3.74
248.991	3.724
250.991	3.719
252.991	3.722
254.991	3.732
256.991	3.751
258.684	3.764
260.991	3.78
263.191	3.783
265.191	3.767
267.191	3.732
269.191	3.686
271.191	3.635
273.191	3.585
275.191	3.538
277.191	3.49
279.191	3.426
280.791	3.368
282.791	3.299
284.791	3.229
286.791	3.168
288.791	3.122
290.791	3.095
292.791	3.085
294.791	3.091
296.791	3.109
298.791	3.132
300.791	3.158
302.791	3.182
304.791	3.202
306.791	3.221
309.076	3.248
311.076	3.273
313.076	3.299
315.076	3.326
317.076	3.354
319.076	3.381
321.076	3.407
323.076	3.433
325.076	3.457
327.076	3.48
329.076	3.501
331.076	3.521
333.076	3.539
335.076	3.554
337.076	3.566
339.076	3.575
341.076	3.58
343.076	3.58
345.076	3.574
347.076	3.561
349.076	3.54
351.076	3.508
353.076	3.463
355.076	3.403
356.219	3.346
357.099	3.3
358.099	3.24
359.099	3.179
360.099	3.12
361.099	3.065
363.248	2.97
365.248	2.911
367.248	2.861
369.248	2.821
371.248	2.787
373.248	2.76
375.248	2.737
377.248	2.718
379.248	2.702
381.248	2.688
383.248	2.676
385.248	2.666
387.248	2.658
389.248	2.651
391.248	2.645
393.248	2.643
395.248	2.643
