Uv/Vis Spectrum: Phenol, 2,4-dinitro-
Formula: C6H4N2O5
CAS: 51-28-5
Melting point: 115.5
Boiling point: sub
Instrument: Hitachi EPU-2 spectrometer
Origin: INSTITUTE OF ENERGY PROBLEMS OF CHEMICAL PHYSICS, RAS
Wavelength (nm)	Logarithm epsilon
365.093	3.32441
365.093	3.32891
364.574	3.33286
364.574	3.33678
364.056	3.34115
364.056	3.345
363.475	3.34881
363.475	3.35681
361.362	3.3795
361.362	3.38302
360.854	3.38652
360.854	3.39385
358.207	3.42481
358.207	3.42798
357.209	3.43465
355.66	3.45333
355.66	3.45962
355.106	3.46256
355.106	3.46583
354.615	3.46872
354.615	3.47159
354.125	3.4748
352.603	3.49762
352.603	3.50331
352.119	3.50596
352.119	3.5086
351.576	3.51155
349.598	3.53007
349.598	3.53504
349.122	3.53781
349.122	3.5427
348.588	3.54542
348.588	3.54783
347.172	3.5649
346.644	3.5672
346.644	3.57205
346.176	3.57432
344.721	3.58821
344.721	3.59283
344.259	3.59283
344.259	3.59714
342.362	3.61241
342.362	3.61473
341.849	3.61678
341.849	3.61883
341.394	3.62111
341.394	3.62314
340.94	3.62515
340.94	3.63753
339.529	3.64166
339.529	3.64359
339.024	3.64551
339.024	3.64766
338.576	3.64957
338.576	3.65146
336.741	3.66702
336.741	3.67268
336.3	3.67448
334.927	3.69098
334.435	3.6927
334.435	3.69442
334	3.69634
334	3.70143
333.565	3.70143
333.565	3.70332
333.078	3.70332
333.078	3.70666
331.731	3.72039
331.731	3.722
331.302	3.72361
331.302	3.7254
330.875	3.727
330.875	3.73036
329.546	3.74011
329.123	3.74165
329.123	3.74471
328.648	3.74642
327.808	3.7573
327.808	3.75878
327.337	3.76025
327.337	3.76191
326.919	3.76337
326.919	3.76483
326.036	3.77384
326.036	3.77828
325.209	3.77828
325.209	3.78267
324.335	3.79132
323.925	3.79269
323.925	3.79558
323.516	3.79694
323.516	3.7998
323.058	3.80114
322.245	3.81075
322.245	3.81206
321.791	3.81353
321.791	3.81612
321.387	3.81758
320.133	3.82935
320.133	3.83076
319.734	3.83201
319.734	3.83325
319.336	3.83465
318.098	3.84355
318.098	3.84973
317.654	3.85108
316.869	3.85848
316.869	3.85965
316.429	3.86082
316.429	3.86199
316.039	3.8633
315.262	3.8705
315.262	3.87277
314.44	3.87518
313.623	3.8833
313.623	3.8844
313.24	3.88565
313.24	3.88785
312.428	3.89573
312.048	3.89694
312.048	3.89908
310.489	3.90795
310.489	3.91004
310.114	3.91121
308.946	3.91868
308.946	3.91971
308.528	3.92072
308.528	3.92288
307.004	3.92916
307.004	3.93016
306.637	3.93115
305.495	3.93634
305.495	3.93732
305.131	3.93842
304.001	3.94436
303.596	3.94544
303.596	3.9464
303.237	3.9464
302.878	3.94736
287.027	3.98907
287.027	3.98993
286.706	3.9908
285.35	3.99532
285.032	3.99618
285.032	3.99703
283.065	4.00328
283.065	4.00412
282.753	4.00496
282.753	4.0059
281.782	4.01016
281.782	4.01099
280.818	4.01357
280.204	4.01867
280.204	4.01948
279.86	4.02039
279.86	4.02201
278.605	4.0295
278.605	4.03029
278.303	4.03118
278.303	4.03196
277.964	4.03275
277.025	4.04006
277.025	4.0417
276.428	4.048
276.13	4.04876
276.13	4.04961
275.796	4.05037
275.796	4.05112
275.204	4.05813
274.872	4.05887
274.872	4.06044
274.577	4.06118
274.577	4.06274
273.661	4.06875
273.661	4.06956
273.37	4.07028
273.37	4.07181
273.079	4.07253
272.462	4.07699
272.462	4.07841
272.173	4.0792
272.173	4.07991
271.273	4.08647
271.273	4.08716
270.95	4.08786
270.95	4.08864
270.379	4.09293
270.379	4.09362
270.058	4.0943
270.058	4.09575
269.774	4.09643
268.89	4.10065
268.89	4.10199
268.608	4.10274
268.608	4.10341
267.452	4.10897
267.452	4.10963
267.139	4.11029
267.139	4.11095
262.624	4.11095
262.624	4.11168
262.054	4.10963
260.655	4.1055
260.39	4.10408
260.39	4.10483
260.126	4.10341
260.126	4.10408
259.829	4.10274
258.748	4.09498
258.748	4.09643
258.487	4.09362
258.487	4.0943
258.226	4.09293
257.416	4.08647
257.416	4.08786
257.126	4.08429
257.126	4.08569
256.611	4.07841
256.611	4.0792
256.323	4.07619
256.323	4.0777
256.067	4.07548
255.556	4.0673
255.556	4.06956
255.27	4.06503
255.27	4.0673
254.478	4.05739
254.478	4.0597
254.226	4.05664
253.691	4.04961
253.691	4.05197
253.44	4.04876
253.44	4.04961
253.19	4.048
252.909	4.0417
252.909	4.04247
252.66	4.04006
252.66	4.04083
252.411	4.03928
251.884	4.03029
251.884	4.03363
250.868	4.0212
250.868	4.02201
250.622	4.01948
250.622	4.02039
250.347	4.01705
250.347	4.01867
250.103	4.01099
250.103	4.01274
249.859	4.0084
249.859	4.01099
249.616	4.00757
248.859	3.99618
248.859	3.99969
248.587	3.99532
248.587	3.99618
248.346	3.99446
248.106	3.98809
247.836	3.98546
247.836	3.98721
247.597	3.9836
247.597	3.98546
246.615	3.97437
246.615	3.97616
245.64	3.96494
245.64	3.96677
245.375	3.9639
244.907	3.95624
244.907	3.95823
244.644	3.9553
244.644	3.95624
244.411	3.95424
243.685	3.94544
243.685	3.94736
243.453	3.94436
243.453	3.94544
243.222	3.94339
242.017	3.93326
242.017	3.93535
238.749	3.91753
238.499	3.91753
238.278	3.91651
233.769	3.90029
233.317	3.90029
232.024	3.89694
231.135	3.89694
230.072	3.89801
229.634	3.89801
229.429	3.89908
229.224	3.89908
227.722	3.90241
227.318	3.90466
227.117	3.90466
226.265	3.90899
225.867	3.91121
225.867	3.91225
