Uv/Vis Spectrum: 4-methoxy-N-(1-methyl-2-pyrrolidinyldene)benzeneamine
Formula: C12H16N2O
CAS: 51245-31-9
Boiling point: 163-164/ 5 mm
Instrument: Hitachi EPS-3
Origin: INSTITUTE OF ENERGY PROBLEMS OF CHEMICAL PHYSICS, RAS
Wavelength (nm)	Logarithm epsilon
229.756	4.001
230.756	4.008
231.756	4.018
232.756	4.029
233.756	4.041
234.756	4.051
235.756	4.06
236.756	4.067
237.756	4.071
238.756	4.073
239.756	4.072
240.756	4.07
241.756	4.065
242.756	4.059
243.756	4.053
244.756	4.045
245.756	4.038
246.756	4.031
247.756	4.026
248.756	4.021
249.756	4.018
250.756	4.016
251.756	4.016
252.693	4.014
253.693	4.017
254.693	4.02
255.693	4.023
256.693	4.026
257.693	4.028
258.693	4.03
259.693	4.032
260.693	4.034
261.693	4.035
262.693	4.035
263.693	4.035
264.693	4.035
265.693	4.034
266.693	4.033
267.693	4.03
268.693	4.028
269.693	4.024
270.693	4.019
271.693	4.014
272.693	4.008
273.693	4.001
274.621	3.993
275.621	3.986
276.621	3.979
277.621	3.971
278.621	3.962
279.621	3.954
280.621	3.945
281.621	3.935
282.621	3.926
283.621	3.916
284.621	3.905
285.621	3.894
286.621	3.883
287.621	3.872
288.621	3.86
289.621	3.848
290.621	3.835
291.621	3.822
292.509	3.809
293.509	3.797
294.509	3.783
295.509	3.768
296.509	3.752
297.509	3.735
298.509	3.717
299.509	3.699
300.509	3.679
301.509	3.658
302.509	3.637
303.509	3.614
304.509	3.591
305.509	3.567
306.509	3.542
307.509	3.516
308.509	3.49
308.521	3.493
309.521	3.466
310.521	3.431
311.521	3.389
312.521	3.34
313.521	3.288
314.521	3.231
315.521	3.173
316.521	3.114
317.521	3.054
318.521	2.996
319.521	2.941
320.521	2.889
321.521	2.843
