Uv/Vis Spectrum: 2-Methyl-1-propanethiol
Formula: C4H10S
CAS: 513-44-0
Instrument: unknown
Origin: INSTITUTE OF ENERGY PROBLEMS OF CHEMICAL PHYSICS, RAS
Wavelength (nm)	Logarithm epsilon
212.56	2.248
213.75	2.235
214.94	2.225
216.3	2.214
217.83	2.21
219.35	2.204
220.88	2.202
222.41	2.202
223.94	2.204
225.47	2.21
226.99	2.216
228.52	2.214
230.05	2.212
231.58	2.206
232.94	2.198
234.13	2.185
235.31	2.174
236.33	2.162
237.01	2.145
237.86	2.128
238.71	2.114
239.56	2.097
240.24	2.08
240.83	2.068
241.43	2.046
242.11	2.03
242.78	2.013
243.21	1.997
243.8	1.982
244.48	1.96
244.99	1.943
245.5	1.927
246.01	1.908
246.52	1.889
247.03	1.872
247.54	1.855
247.88	1.836
248.39	1.82
248.9	1.801
249.24	1.782
249.57	1.768
249.94	1.75
250.42	1.727
250.62	1.712
250.93	1.689
251.27	1.67
251.61	1.652
251.95	1.633
252.29	1.614
252.63	1.595
252.97	1.576
253.22	1.557
253.48	1.538
253.8	1.519
253.99	1.5
254.33	1.481
254.67	1.462
255.01	1.444
255.39	1.427
255.86	1.406
256.2	1.387
256.5	1.373
256.88	1.351
257.39	1.332
257.72	1.313
258.06	1.294
258.46	1.275
258.91	1.259
259.3	1.243
259.76	1.223
260.1	1.204
260.61	1.187
261.12	1.168
261.46	1.15
261.9	1.136
262.48	1.114
262.85	1.097
263.33	1.078
263.7	1.064
264.18	1.042
264.69	1.026
265.2	1.009
265.7	0.992
266.21	0.973
266.72	0.956
267.22	0.938
267.74	0.921
268.42	0.904
269.1	0.887
269.61	0.868
270.11	0.852
270.8	0.832
271.41	0.819
272.1	0.8
272.67	0.784
273.17	0.767
273.85	0.751
274.53	0.734
275.17	0.716
275.92	0.699
276.57	0.683
277.42	0.667
278.27	0.65
279.12	0.633
279.97	0.618
280.65	0.601
281.49	0.585
