Uv/Vis Spectrum: N,N-dimethyl-4-(10H-phenoxarsin-10-yl) benzenamine
Formula: C20H18AsNO
CAS: 51440-00-7
Instrument: Specord UV-Vis
Origin: INSTITUTE OF ENERGY PROBLEMS OF CHEMICAL PHYSICS, RAS
Wavelength (nm)	Logarithm epsilon
211.345	4.683
211.532	4.679
212.532	4.65
213.532	4.623
214.532	4.595
215.532	4.567
216.532	4.538
217.532	4.51
218.532	4.481
219.532	4.453
220.532	4.426
221.532	4.399
222.532	4.374
223.532	4.349
224.532	4.326
225.532	4.305
226.532	4.284
227.532	4.263
228.532	4.244
229.532	4.224
230.532	4.203
231.532	4.182
232.532	4.16
233.532	4.137
234.532	4.114
235.532	4.091
236.215	4.077
237.215	4.059
238.215	4.042
239.215	4.027
240.215	4.014
241.215	4.002
242.215	3.992
243.215	3.983
244.215	3.976
245.215	3.972
246.215	3.969
247.215	3.968
248.215	3.969
249.215	3.972
250.215	3.976
251.215	3.983
252.215	3.991
253.215	4
254.215	4.01
255.215	4.022
256.215	4.034
257.215	4.046
258.215	4.059
259.215	4.071
259.403	4.073
260.403	4.086
261.403	4.099
262.403	4.111
263.403	4.124
264.403	4.137
265.403	4.15
266.403	4.165
267.403	4.179
268.403	4.195
269.403	4.21
270.403	4.225
271.403	4.239
272.403	4.253
273.403	4.266
274.403	4.277
275.403	4.287
276.403	4.294
277.403	4.3
278.403	4.304
279.403	4.306
280.403	4.305
281.403	4.303
282.403	4.299
283.403	4.293
284.403	4.285
285.403	4.276
286.403	4.266
287.403	4.255
288.403	4.244
289.403	4.231
290.403	4.217
291.403	4.202
292.403	4.184
293.403	4.164
293.624	4.156
294.624	4.131
295.624	4.108
296.624	4.087
297.624	4.066
298.624	4.046
299.624	4.025
300.624	4.005
301.624	3.985
302.624	3.964
303.624	3.943
304.624	3.922
305.624	3.899
306.624	3.876
307.624	3.853
308.624	3.828
309.624	3.804
310.624	3.778
311.624	3.753
312.624	3.727
313.624	3.701
314.624	3.674
315.624	3.648
316.624	3.621
317.624	3.595
318.624	3.569
319.624	3.544
320.624	3.518
321.624	3.493
322.624	3.469
323.624	3.444
324.624	3.42
325.624	3.396
326.624	3.371
327.624	3.347
328.624	3.321
329.624	3.295
330.624	3.268
