Uv/Vis Spectrum: (Z)-1-ethoxy-2-(ethylthio)ethene
Formula: C6H12OS
CAS: 51690-37-0
Boiling point: 64-66/14 mm
Instrument: Unicam SP 700
Origin: INSTITUTE OF ENERGY PROBLEMS OF CHEMICAL PHYSICS, RAS
Wavelength (nm)	Logarithm epsilon
204.532	3.675
205.532	3.68
206.532	3.685
207.532	3.691
208.532	3.697
209.532	3.703
210.532	3.709
211.532	3.715
212.532	3.721
213.532	3.727
214.532	3.732
215.532	3.737
216.532	3.742
217.532	3.747
218.532	3.752
219.532	3.756
220.532	3.76
221.532	3.763
222.532	3.766
223.532	3.769
224.532	3.771
225.532	3.773
226.532	3.774
227.532	3.775
227.539	3.774
228.539	3.774
229.539	3.773
230.539	3.771
231.539	3.768
232.539	3.763
233.539	3.757
234.539	3.749
235.539	3.74
236.539	3.73
237.539	3.718
238.539	3.705
239.539	3.691
240.539	3.677
241.539	3.661
242.539	3.645
243.539	3.629
244.539	3.613
245.539	3.598
246.41	3.58
247.41	3.575
248.41	3.568
249.41	3.56
250.41	3.552
251.41	3.545
252.41	3.541
253.41	3.538
254.41	3.537
255.41	3.537
256.41	3.538
257.41	3.54
258.41	3.541
259.41	3.541
260.41	3.538
261.41	3.531
262.41	3.521
263.41	3.506
264.41	3.486
265.41	3.46
266.41	3.428
267.41	3.391
268.41	3.35
269.41	3.305
270.321	3.259
271.321	3.22
272.321	3.162
273.321	3.092
274.321	3.017
275.321	2.941
276.321	2.867
277.321	2.798
278.321	2.736
278.335	2.736
279.335	2.676
280.335	2.626
281.335	2.585
282.335	2.547
283.335	2.508
284.335	2.462
285.335	2.407
286.335	2.346
