Uv/Vis Spectrum: DL-Valine
Formula: C5H11NO2
CAS: 516-06-3
Melting point: 298 dec
Boiling point: sub
Instrument: Beckman DU
Origin: INSTITUTE OF ENERGY PROBLEMS OF CHEMICAL PHYSICS, RAS
Wavelength (nm)	Logarithm epsilon
200.13	2.136
200.26	2.135
200.39	2.135
200.66	2.122
201.18	2.104
201.7	2.085
202.23	2.065
202.75	2.045
203.28	2.023
203.8	2.006
204.32	1.983
204.85	1.963
205.37	1.939
205.9	1.919
206.42	1.9
206.94	1.879
207.47	1.847
207.99	1.818
208.52	1.785
209.04	1.763
209.56	1.745
210.09	1.714
210.61	1.691
211.14	1.662
212.18	1.608
212.71	1.562
213.23	1.522
213.76	1.482
214.28	1.466
215.33	1.411
215.85	1.383
216.9	1.337
217.42	1.304
217.95	1.286
218.47	1.255
219	1.228
219.52	1.207
220.04	1.169
221.09	1.11
222.14	1.062
223.19	1.02
223.71	0.997
224.24	0.96
224.76	0.906
225.81	0.827
226.86	0.771
228.95	0.575
