Uv/Vis Spectrum: 2-ethoxy-3-hydroxy-1H-phenalen-1-one
Formula: C15H12O3
CAS: 51678-95-6
Melting point: 125-126
Instrument: Hitachi EPS-3T
Origin: INSTITUTE OF ENERGY PROBLEMS OF CHEMICAL PHYSICS, RAS
Wavelength (nm)	Logarithm epsilon
271.849	3.651
272.212	3.651
273.212	3.646
274.212	3.625
275.212	3.592
276.212	3.549
277.212	3.5
278.212	3.448
279.212	3.395
280.212	3.342
281.212	3.292
282.212	3.247
283.212	3.207
284.212	3.173
285.212	3.146
286.212	3.126
286.36	3.124
287.36	3.113
288.36	3.106
289.36	3.104
290.36	3.105
291.36	3.11
292.36	3.118
293.36	3.129
294.36	3.143
295.36	3.159
296.36	3.177
297.36	3.198
298.36	3.22
299.36	3.244
300.36	3.27
301.36	3.296
302.36	3.324
303.36	3.352
304.36	3.382
305.36	3.411
306.36	3.442
307.36	3.472
308.36	3.503
309.36	3.533
310.36	3.563
311.36	3.593
312.36	3.623
313.36	3.651
314.36	3.679
315.36	3.706
316.36	3.732
317.36	3.757
318.36	3.78
319.36	3.801
319.373	3.805
320.373	3.82
321.373	3.834
322.373	3.848
323.373	3.862
324.373	3.874
325.373	3.886
326.373	3.898
327.373	3.908
328.373	3.918
329.373	3.926
330.373	3.934
331.373	3.94
332.373	3.945
333.373	3.949
334.373	3.951
335.373	3.953
336.373	3.953
337.373	3.952
338.373	3.949
339.373	3.946
340.373	3.943
341.373	3.938
342.373	3.933
343.373	3.928
344.373	3.923
345.373	3.919
346.373	3.915
347.373	3.912
348.373	3.911
349.373	3.912
350.373	3.915
351.298	3.916
352.298	3.925
353.298	3.932
354.298	3.935
355.298	3.934
356.298	3.929
357.298	3.92
358.298	3.906
359.298	3.887
360.298	3.864
361.298	3.838
362.298	3.808
363.298	3.776
364.298	3.742
365.298	3.707
366.298	3.672
367.298	3.638
368.298	3.605
369.298	3.574
370.298	3.546
371.298	3.522
372.298	3.501
373.298	3.484
374.298	3.472
375.298	3.464
376.298	3.46
377.298	3.461
378.298	3.464
379.298	3.469
380.298	3.476
381.298	3.481
381.876	3.479
382.876	3.481
383.876	3.484
384.876	3.488
385.876	3.492
386.876	3.496
387.876	3.501
388.876	3.506
389.876	3.511
390.876	3.517
391.876	3.522
392.876	3.527
393.876	3.532
394.876	3.537
395.876	3.542
396.876	3.547
397.876	3.552
398.876	3.556
399.876	3.56
400.876	3.563
401.876	3.567
402.876	3.57
403.876	3.573
404.876	3.575
405.876	3.578
406.876	3.58
407.876	3.581
408.876	3.582
409.876	3.583
410.876	3.584
411.876	3.584
412.876	3.584
413.876	3.584
414.876	3.583
415.876	3.583
416.876	3.581
417.876	3.58
418.876	3.578
419.876	3.576
420.876	3.574
421.876	3.571
422.876	3.568
423.876	3.565
424.876	3.562
425.876	3.558
426.876	3.554
427.876	3.549
428.876	3.545
429.876	3.54
430.876	3.535
431.876	3.529
432.876	3.523
433.876	3.517
434.876	3.51
435.876	3.503
436.876	3.496
437.876	3.488
438.876	3.48
439.876	3.472
440.876	3.463
441.876	3.454
442.876	3.444
443.876	3.435
444.876	3.425
445.876	3.414
446.876	3.404
447.073	3.403
448.073	3.39
449.073	3.376
450.073	3.362
451.073	3.347
452.073	3.333
453.073	3.318
454.073	3.302
455.073	3.287
456.073	3.271
457.073	3.255
458.073	3.239
459.073	3.222
460.073	3.206
461.073	3.189
462.073	3.171
463.073	3.154
464.073	3.136
465.073	3.118
466.073	3.1
467.073	3.082
468.073	3.063
469.073	3.044
470.073	3.025
471.073	3.006
472.073	2.987
473.073	2.967
474.073	2.947
475.073	2.927
476.073	2.907
477.073	2.886
478.073	2.865
479.073	2.844
480.073	2.823
481.073	2.801
482.073	2.779
483.073	2.757
484.073	2.734
485.073	2.711
486.073	2.688
487.073	2.664
488.073	2.64
489.073	2.615
490.073	2.59
491.073	2.564
492.073	2.538
493.073	2.511
494.073	2.483
495.073	2.455
496.073	2.426
497.073	2.396
498.073	2.365
499.073	2.334
500.073	2.301
501.073	2.267
502.073	2.233
502.942	2.181
