Uv/Vis Spectrum: 2(methylthio)-4(1H)-pteridinone
Formula: C7H6N4OS
CAS: 51826-23-4
Melting point: 267-268
Instrument: Cary 14 PM-50
Origin: INSTITUTE OF ENERGY PROBLEMS OF CHEMICAL PHYSICS, RAS
Wavelength (nm)	Logarithm epsilon
220.363	3.867
221.363	3.868
222.363	3.873
223.363	3.879
224.363	3.886
225.363	3.893
226.363	3.899
227.363	3.903
228.363	3.905
229.363	3.906
230.363	3.905
231.363	3.902
232.363	3.897
233.363	3.892
234.363	3.885
235.363	3.877
236.363	3.869
237.363	3.862
238.363	3.854
239.363	3.847
240.363	3.842
241.363	3.837
242.363	3.833
243.363	3.831
244.363	3.83
245.363	3.831
246.363	3.833
247.363	3.837
248.363	3.841
249.363	3.847
250.363	3.853
251.363	3.86
251.378	3.86
252.378	3.868
253.378	3.877
254.378	3.887
255.378	3.897
256.378	3.909
257.378	3.921
258.378	3.934
259.378	3.947
260.378	3.961
261.378	3.975
262.378	3.989
263.378	4.004
264.378	4.018
265.378	4.031
266.191	4.041
267.191	4.055
268.191	4.068
269.191	4.078
270.191	4.088
271.191	4.098
272.191	4.108
273.191	4.119
274.191	4.13
275.191	4.14
276.191	4.149
277.191	4.156
278.191	4.159
279.191	4.159
280.191	4.151
281.357	4.14
282.357	4.127
283.357	4.111
284.357	4.092
285.357	4.071
286.357	4.049
287.357	4.025
288.357	4.002
289.357	3.978
290.357	3.955
291.357	3.932
292.357	3.909
293.271	3.887
294.271	3.867
295.271	3.846
296.271	3.823
297.271	3.799
298.271	3.776
299.271	3.755
300.271	3.736
301.271	3.719
302.271	3.704
303.271	3.693
304.271	3.684
305.271	3.678
306.271	3.676
307.271	3.675
308.271	3.677
309.271	3.682
310.271	3.688
311.271	3.695
312.271	3.704
313.271	3.714
314.102	3.723
315.102	3.73
316.102	3.738
317.102	3.746
318.102	3.755
319.102	3.764
320.102	3.774
321.102	3.784
322.102	3.793
323.102	3.802
324.102	3.811
325.102	3.818
326.102	3.824
327.102	3.829
328.102	3.832
329.102	3.834
330.102	3.834
331.102	3.831
332.102	3.827
333.102	3.821
334.102	3.813
335.102	3.803
336.102	3.792
337.102	3.78
338.102	3.767
339.102	3.754
339.331	3.751
340.331	3.735
341.331	3.719
342.331	3.703
343.331	3.687
344.331	3.67
345.331	3.654
346.331	3.637
347.331	3.62
348.331	3.602
349.331	3.584
350.331	3.565
351.331	3.546
352.331	3.525
353.331	3.504
354.331	3.482
355.331	3.458
356.331	3.434
357.331	3.409
357.385	3.407
358.385	3.384
359.385	3.355
360.385	3.326
361.385	3.297
362.385	3.27
363.385	3.246
364.385	3.223
365.385	3.199
366.385	3.171
367.385	3.135
367.8	3.118
