Uv/Vis Spectrum: Octahydro-3,3-diphenyl-2H-indol-2-one
Formula: C20H21NO
CAS: 51945-45-0
Melting point: 251-252
Instrument: SF-4a
Origin: INSTITUTE OF ENERGY PROBLEMS OF CHEMICAL PHYSICS, RAS
Wavelength (nm)	Logarithm epsilon
218.803	4.411
220.113	4.412
221.113	4.411
222.113	4.401
223.113	4.372
224.113	4.324
225.113	4.265
226.113	4.205
227.113	4.155
228.142	4.121
229.142	4.109
230.142	4.104
231.142	4.063
232.142	3.977
233.142	3.875
234.142	3.821
235.152	3.776
236.152	3.748
237.152	3.734
238.152	3.731
239.152	3.739
240.152	3.754
241.152	3.774
242.152	3.799
243.186	3.827
244.186	3.856
245.186	3.885
246.186	3.914
247.186	3.943
248.186	3.972
249.186	4.001
250.186	4.031
251.186	4.06
252.141	4.088
253.141	4.116
254.141	4.137
255.438	4.155
256.438	4.17
257.438	4.188
258.438	4.206
259.438	4.225
260.438	4.244
261.438	4.262
262.438	4.279
263.438	4.294
264.438	4.305
265.438	4.314
266.438	4.319
267.438	4.318
268.378	4.317
269.378	4.303
270.378	4.289
271.378	4.277
272.378	4.267
273.378	4.258
274.378	4.25
275.378	4.244
276.378	4.236
277.249	4.226
278.249	4.218
279.249	4.195
280.249	4.167
281.249	4.134
282.249	4.088
283.249	4.015
284.089	3.933
284.716	3.847
285.209	3.783
285.658	3.738
286.286	3.687
287.209	3.645
288.02	3.634
289.02	3.636
290.02	3.646
291.02	3.659
292.02	3.673
293.02	3.682
294.02	3.685
295.02	3.68
296.02	3.667
297.02	3.648
298.02	3.626
299.02	3.607
299.443	3.599
300.289	3.596
300.852	3.592
301.852	3.603
302.852	3.636
303.852	3.678
304.852	3.717
305.852	3.741
306.852	3.738
307.852	3.695
308.772	3.61
309.772	3.47
310.772	3.337
311.772	3.209
312.772	3.087
313.772	2.97
314.772	2.856
315.772	2.745
316.772	2.637
317.772	2.53
318.772	2.424
