Uv/Vis Spectrum: 1,9-dihydro-2-methyl-3H-1,2,4-triazino[6,5-b]indole-3-thione
Formula: C10H8N4S
CAS: 51972-76-6
Melting point: 283.5
Instrument: SF-8
Origin: INSTITUTE OF ENERGY PROBLEMS OF CHEMICAL PHYSICS, RAS
Wavelength (nm)	Logarithm epsilon
243.424	3.9
244.424	3.882
245.424	3.862
246.424	3.84
247.424	3.82
248.424	3.802
249.424	3.787
250.424	3.779
251.424	3.776
252.424	3.782
253.424	3.794
254.424	3.814
255.424	3.84
256.424	3.87
257.424	3.903
258.424	3.935
259.424	3.965
260.424	3.989
261.424	4.006
262.424	4.013
263.424	4.009
264.424	3.996
265.424	3.974
266.424	3.949
267.424	3.927
269.031	3.92
270.362	3.926
271.362	3.934
272.362	3.949
273.362	3.968
274.362	3.991
275.362	4.017
276.362	4.045
277.362	4.074
278.362	4.103
279.362	4.132
280.362	4.162
280.864	4.198
281.871	4.231
282.878	4.269
283.634	4.305
284.641	4.343
285.476	4.375
286.476	4.427
287.476	4.472
288.476	4.511
289.476	4.545
290.476	4.575
291.476	4.602
292.476	4.625
293.476	4.645
294.476	4.661
295.476	4.673
296.476	4.681
297.476	4.685
298.476	4.684
299.747	4.678
301.006	4.669
302.265	4.654
303.523	4.639
304.279	4.627
305.101	4.616
306.101	4.603
307.101	4.588
308.101	4.571
309.101	4.553
310.101	4.533
311.101	4.511
312.101	4.487
313.101	4.462
314.101	4.436
315.101	4.408
316.101	4.379
317.101	4.349
318.101	4.319
319.101	4.288
320.101	4.256
321.101	4.225
322.101	4.193
323.101	4.161
324.101	4.13
325.101	4.099
326.101	4.069
326.838	4.042
327.527	4.027
328.527	4.002
329.527	3.977
330.527	3.951
331.527	3.926
332.527	3.901
333.527	3.876
334.527	3.851
335.527	3.826
336.527	3.801
337.527	3.776
338.527	3.75
339.527	3.725
340.439	3.687
341.439	3.652
342.439	3.616
343.439	3.58
344.439	3.544
345.439	3.508
346.439	3.473
347.439	3.438
348.439	3.404
349.439	3.372
350.439	3.341
351.439	3.311
352.439	3.282
353.439	3.255
354.439	3.229
355.439	3.204
356.439	3.181
357.439	3.16
358.439	3.139
359.261	3.125
360.761	3.097
362.261	3.072
363.761	3.049
365.261	3.028
366.761	3.009
368.261	2.991
369.761	2.975
371.261	2.96
372.761	2.945
374.261	2.932
375.761	2.919
377.261	2.906
378.761	2.894
380.261	2.881
381.761	2.869
383.261	2.857
384.761	2.846
386.261	2.834
387.761	2.822
389.261	2.811
390.761	2.8
392.261	2.789
393.761	2.778
395.261	2.768
396.761	2.758
397.86	2.751
399.36	2.743
400.86	2.737
402.36	2.732
403.86	2.728
405.36	2.726
406.86	2.725
408.36	2.725
409.86	2.726
411.36	2.727
412.86	2.73
414.36	2.733
415.86	2.737
417.36	2.741
418.86	2.746
420.36	2.751
421.86	2.757
423.36	2.763
424.86	2.769
426.36	2.775
427.86	2.782
429.36	2.789
430.86	2.796
432.36	2.804
433.86	2.812
435.36	2.82
436.86	2.828
438.36	2.836
439.86	2.845
441.36	2.854
442.86	2.863
444.36	2.873
445.86	2.883
447.36	2.893
447.689	2.897
449.189	2.907
450.689	2.917
452.189	2.927
453.689	2.937
455.189	2.946
456.689	2.955
458.189	2.964
459.689	2.972
461.189	2.981
462.689	2.989
464.189	2.996
465.689	3.004
467.189	3.011
468.689	3.018
470.189	3.025
471.689	3.032
473.189	3.038
474.689	3.044
476.189	3.05
477.689	3.056
479.189	3.062
480.689	3.067
482.189	3.072
483.689	3.076
485.189	3.081
486.689	3.085
488.189	3.089
489.689	3.092
491.189	3.095
492.689	3.098
494.189	3.1
495.689	3.102
497.189	3.103
498.689	3.104
500.189	3.104
501.689	3.103
503.189	3.102
504.689	3.101
506.189	3.098
507.689	3.095
509.189	3.092
510.689	3.087
512.189	3.081
513.689	3.075
515.189	3.068
516.689	3.059
518.168	3.05
519.668	3.039
521.168	3.029
522.668	3.02
524.168	3.011
525.668	3.004
527.168	2.997
528.668	2.99
530.168	2.984
531.668	2.977
533.168	2.969
534.668	2.96
536.168	2.949
536.604	2.946
