Uv/Vis Spectrum: 5-Aminoindole
Formula: C8H8N2
CAS: 5192-03-0
Instrument: Shimadzu UV 190
Origin: INSTITUTE OF ENERGY PROBLEMS OF CHEMICAL PHYSICS, RAS
Wavelength (nm)	Logarithm epsilon
187.72	3.94
187.84	3.941
187.96	3.941
188.07	3.943
188.19	3.945
188.31	3.947
188.43	3.949
188.55	3.95
188.67	3.952
188.78	3.954
188.9	3.954
189.49	3.976
190.09	3.996
190.68	4.017
191.27	4.041
191.86	4.065
192.45	4.091
193.05	4.123
193.64	4.153
194.23	4.182
194.82	4.212
195.41	4.245
196	4.285
196.51	4.319
196.87	4.345
197.2	4.372
197.47	4.393
197.75	4.415
198.37	4.462
198.61	4.482
198.96	4.506
199.32	4.525
199.67	4.54
200.03	4.551
200.38	4.562
200.74	4.57
201.09	4.578
201.45	4.583
201.8	4.59
202.16	4.594
202.51	4.6
202.87	4.605
203.22	4.609
203.58	4.613
203.94	4.617
204.29	4.62
204.65	4.623
205	4.625
205.36	4.626
205.71	4.626
206.07	4.626
206.42	4.626
206.78	4.625
207.13	4.624
207.49	4.623
207.84	4.622
208.2	4.62
208.55	4.619
208.91	4.617
209.26	4.615
209.62	4.613
209.97	4.611
210.33	4.609
210.68	4.607
211.04	4.605
211.39	4.603
211.75	4.601
212.1	4.598
212.46	4.596
212.81	4.593
213.17	4.59
213.52	4.587
213.88	4.584
214.23	4.582
214.59	4.578
214.94	4.576
215.3	4.573
215.65	4.571
216.01	4.568
216.36	4.566
216.72	4.564
217.07	4.562
217.43	4.56
217.78	4.558
218.14	4.556
218.49	4.555
218.85	4.553
219.2	4.551
219.56	4.549
219.91	4.547
220.27	4.547
220.63	4.545
220.98	4.543
221.34	4.542
221.69	4.54
222.05	4.539
222.4	4.537
222.76	4.535
223.11	4.531
223.47	4.526
223.82	4.519
224.18	4.511
224.53	4.503
224.89	4.495
225.24	4.49
225.6	4.482
225.95	4.472
226.31	4.462
226.66	4.454
227.02	4.446
227.37	4.44
227.73	4.433
228.08	4.423
228.44	4.413
228.79	4.404
229.15	4.395
229.5	4.385
229.86	4.377
230.21	4.366
230.57	4.357
230.92	4.348
231.52	4.335
232.11	4.314
232.7	4.297
233.29	4.279
233.88	4.257
234.47	4.235
235.07	4.215
235.66	4.192
236.25	4.166
236.84	4.138
237.43	4.108
238.03	4.084
238.62	4.052
239.21	4.022
239.8	3.997
240.39	3.971
240.98	3.945
241.58	3.919
242.17	3.896
242.76	3.873
243.35	3.849
243.94	3.827
244.54	3.812
245.13	3.797
245.72	3.782
246.31	3.772
246.9	3.761
247.5	3.75
248.09	3.744
248.68	3.738
249.27	3.733
249.83	3.729
250.45	3.73
251.05	3.731
251.6	3.733
252.24	3.738
252.82	3.744
253.41	3.75
253.98	3.756
254.56	3.763
255.19	3.772
255.75	3.779
256.37	3.785
256.97	3.792
257.39	3.797
258.1	3.804
258.62	3.81
259.33	3.817
259.92	3.824
260.51	3.832
261.11	3.838
261.67	3.844
262.29	3.849
262.86	3.856
263.47	3.86
264.07	3.865
264.66	3.869
265.25	3.873
265.79	3.877
266.44	3.881
267.03	3.884
267.62	3.886
268.21	3.888
268.8	3.89
269.39	3.89
269.99	3.89
270.58	3.888
271.17	3.886
271.69	3.882
272.35	3.877
272.94	3.873
273.52	3.868
274.1	3.862
274.72	3.856
275.29	3.85
275.9	3.843
276.5	3.838
277.09	3.829
277.74	3.821
278.27	3.815
278.86	3.805
279.45	3.797
279.96	3.789
280.64	3.777
281.23	3.766
281.79	3.757
282.34	3.746
283.01	3.733
283.6	3.724
284.19	3.715
284.69	3.707
285.3	3.698
285.97	3.69
286.56	3.68
287.15	3.67
287.65	3.663
288.23	3.657
288.92	3.649
289.52	3.642
290.11	3.635
290.7	3.631
291.29	3.631
291.88	3.631
292.48	3.631
293.07	3.631
293.66	3.631
294.25	3.631
294.84	3.631
295.48	3.634
296.03	3.635
296.62	3.635
297.21	3.635
297.8	3.637
298.41	3.637
298.99	3.639
299.58	3.642
300.08	3.646
300.76	3.649
301.35	3.653
301.92	3.656
302.54	3.656
303.13	3.656
303.72	3.656
304.31	3.656
304.91	3.658
305.5	3.656
306.09	3.656
306.68	3.656
307.26	3.656
307.86	3.653
308.48	3.648
309.06	3.641
309.61	3.634
310.23	3.624
310.82	3.616
311.41	3.609
312.02	3.599
312.6	3.589
313.22	3.579
313.78	3.568
314.41	3.555
314.97	3.542
315.56	3.528
316.11	3.515
316.74	3.499
317.33	3.478
317.93	3.462
318.52	3.44
319.11	3.417
319.7	3.392
320.29	3.372
320.91	3.349
321.59	3.326
322	3.306
322.66	3.275
323.25	3.25
323.84	3.222
324.44	3.193
324.9	3.168
325.62	3.128
326.16	3.101
326.8	3.065
327.38	3.032
327.99	2.991
328.58	2.957
