Uv/Vis Spectrum: Triphenylmethane
Formula: C19H16
CAS: 519-73-3
Melting point: 94
Boiling point: 359; 200(10)
Instrument: Unicam SP 700
Origin: INSTITUTE OF ENERGY PROBLEMS OF CHEMICAL PHYSICS, RAS
Wavelength (nm)	Logarithm epsilon
279.264	1.17804
278.994	1.22972
278.749	1.27899
278.553	1.32122
278.429	1.35182
278.401	1.36617
278.251	1.38946
278.18	1.39024
278.074	1.39382
278.051	1.38972
277.892	1.42674
277.755	1.38745
277.755	1.38745
277.733	1.3836
277.709	1.45966
277.707	1.37969
277.671	1.37568
277.527	1.49258
277.345	1.5255
277.163	1.55842
276.982	1.59134
276.801	1.62426
276.621	1.65718
276.441	1.69011
276.262	1.72303
276.083	1.75595
275.905	1.78886
275.727	1.82178
275.55	1.8547
275.374	1.88762
275.198	1.92053
275.023	1.95344
274.849	1.98635
274.676	2.01926
274.503	2.05217
274.331	2.08507
274.16	2.11797
273.99	2.15087
273.82	2.18377
273.652	2.21666
273.484	2.24955
273.318	2.28244
273.152	2.31532
272.988	2.3482
272.824	2.38108
272.662	2.41395
272.501	2.44682
272.34	2.47968
272.181	2.51254
272.024	2.54539
271.867	2.57824
271.711	2.61108
271.557	2.64392
271.557	2.64392
271.375	2.67379
270.911	2.72209
270.019	2.7561
270.019	2.7561
269.949	2.76813
269.878	2.78016
269.808	2.79219
269.795	2.75611
269.247	2.74142
268.968	2.72552
268.312	2.71016
268.069	2.70276
268.002	2.70746
267.865	2.71052
267.54	2.71456
267.54	2.71456
267.25	2.74077
266.691	2.76085
265.214	2.7723
265.214	2.7723
264.029	2.87549
263.543	2.91426
263.332	2.92186
263.332	2.92186
263.065	2.92129
262.794	2.92061
262.516	2.91987
262.516	2.91987
260.755	2.87752
259.92	2.85892
259.591	2.85074
259.591	2.85074
258.925	2.84013
258.435	2.83309
257.222	2.83173
257.222	2.83173
257.205	2.83352
257.185	2.83532
257.156	2.83711
257.156	2.83711
256.025	2.84244
255.357	2.83806
254.633	2.82221
254.633	2.82221
253.985	2.79
253.108	2.75189
251.936	2.72211
251.936	2.72211
251.302	2.72081
250.672	2.71939
250.044	2.71791
250.044	2.71791
249.915	2.71183
249.703	2.70467
249.383	2.69775
249.383	2.69775
249.256	2.68668
248.681	2.65329
247.177	2.56897
247.177	2.56897
246.359	2.54252
245.497	2.52518
243.685	2.51041
243.685	2.51041
243.664	2.50836
243.637	2.50625
243.607	2.50402
243.607	2.50402
242.771	2.48264
242.138	2.44748
241.141	2.41775
240.962	2.41674
240.43	2.41839
240.173	2.42007
239.97	2.42322
239.97	2.42322
239.864	2.42937
239.451	2.44664
238.594	2.48629
238.594	2.48629
238.179	2.4963
238.046	2.50697
237.991	2.51935
237.991	2.51935
237.451	2.55457
236.953	2.58991
236.493	2.62534
236.067	2.66084
235.671	2.69641
235.299	2.73202
234.949	2.76767
234.616	2.80332
234.295	2.83898
233.982	2.87462
233.675	2.91023
233.368	2.94578
233.368	2.94578
233.044	2.99604
232.741	3.04326
232.457	3.08762
232.19	3.12934
231.94	3.1686
231.704	3.20561
231.481	3.24056
231.27	3.27365
231.07	3.30507
230.879	3.33502
230.696	3.3637
230.52	3.39131
230.349	3.41804
230.182	3.44408
230.018	3.46965
229.855	3.49492
229.692	3.52011
229.528	3.5454
229.362	3.57099
229.192	3.59708
229.018	3.62387
228.837	3.65156
228.649	3.68033
228.452	3.71039
228.246	3.74193
228.029	3.77516
227.799	3.81026
227.557	3.84744
227.3	3.88689
227.027	3.92881
226.738	3.9734
226.43	4.02084
226.43	4.02084
225.931	4.07948
225.589	4.11739
225.244	4.15107
224.74	4.19705
224.74	4.19705
223.924	4.21489
223.079	4.22695
222.139	4.24106
222.139	4.24106
221.279	4.25355
220.637	4.27375
220.022	4.29373
220.022	4.29373
219.181	4.29842
218.345	4.30311
217.509	4.30781
217.509	4.30781
216.421	4.34017
215.466	4.37484
214.476	4.40784
213.292	4.43517
213.292	4.43517
212.989	4.43673
212.684	4.43823
212.375	4.43962
212.375	4.43962
210.85	4.47888
209.532	4.51881
208.24	4.5606
208.24	4.5606
207.473	4.59192
206.718	4.6238
205.967	4.65596
205.211	4.68816
204.44	4.72011
203.646	4.75154
202.821	4.7822
201.956	4.81182
201.044	4.84012
200.078	4.86684
200.078	4.86684
199.745	4.87038
199.356	4.87519
198.937	4.87875
198.937	4.87875
198.35	4.87882
197.764	4.8789
197.177	4.87897
197.177	4.87897
196.012	4.87201
194.629	4.86228
