Uv/Vis Spectrum: N-Phenylphthalic acid imide
Formula: C14H9NO2
CAS: 520-03-6
Melting point: 210
Boiling point: sub.
Instrument: unknown
Origin: INSTITUTE OF ENERGY PROBLEMS OF CHEMICAL PHYSICS, RAS
Wavelength (nm)	Logarithm epsilon
217.61	4.55
218.94	4.534
220.44	4.525
221.93	4.513
223.43	4.508
224.76	4.496
226.25	4.492
227.75	4.487
229.24	4.479
230.74	4.471
232.07	4.458
233.56	4.45
234.89	4.433
236.22	4.412
237.55	4.399
238.88	4.378
240.21	4.357
241.37	4.332
242.7	4.307
243.86	4.286
244.86	4.261
245.86	4.235
247.02	4.21
247.85	4.181
248.85	4.151
249.84	4.122
250.67	4.088
251.51	4.059
252.34	4.03
253.17	3.996
254	3.967
254.83	3.933
255.49	3.899
256.32	3.87
256.99	3.836
257.49	3.803
258.32	3.773
258.98	3.74
259.48	3.706
259.98	3.672
260.64	3.639
261.14	3.605
261.81	3.572
262.31	3.538
262.8	3.504
263.3	3.467
263.97	3.433
264.63	3.399
265.3	3.366
266.13	3.336
266.63	3.303
267.46	3.273
268.29	3.24
268.95	3.206
269.95	3.177
270.94	3.152
272.11	3.126
273.44	3.11
274.93	3.101
276.43	3.101
277.92	3.101
279.25	3.114
280.58	3.126
281.91	3.147
283.24	3.16
284.57	3.177
285.9	3.194
287.06	3.215
288.56	3.223
289.89	3.236
291.38	3.248
292.88	3.257
294.37	3.265
295.87	3.257
297.36	3.257
298.86	3.244
300.35	3.231
301.68	3.219
303.01	3.198
304.34	3.177
305.67	3.156
306.83	3.131
307.83	3.105
308.61	3.081
309.46	3.045
310.32	3.017
311.15	2.988
311.98	2.954
312.65	2.921
313.26	2.891
313.98	2.853
314.64	2.82
315.14	2.786
315.8	2.752
316.64	2.719
317.47	2.685
318.3	2.656
319.13	2.626
320.12	2.597
321.12	2.563
322.12	2.534
323.28	2.509
324.11	2.479
325.28	2.458
326.44	2.433
327.6	2.408
328.6	2.383
329.76	2.358
330.92	2.332
332.09	2.311
333.25	2.286
334.41	2.261
335.58	2.24
336.74	2.219
338.07	2.198
339.23	2.177
340.39	2.156
341.56	2.131
342.72	2.106
343.72	2.08
344.88	2.055
346.04	2.03
347.04	2.005
348.04	1.975
349.2	1.95
350.2	1.925
351.19	1.895
352.19	1.87
