Uv/Vis Spectrum: 3,6-cycloheptadiene-1,2,5-trione, 5-oxime
Formula: C7H5NO3
CAS: 52003-24-4
Melting point: 175-180 dec.
Instrument: Hitachi EPS-2
Origin: INSTITUTE OF ENERGY PROBLEMS OF CHEMICAL PHYSICS, RAS
Wavelength (nm)	Logarithm epsilon
236.593	3.815
237.939	3.827
239.439	3.836
240.939	3.845
242.439	3.851
243.939	3.854
245.786	3.854
247.341	3.852
248.64	3.848
250.14	3.844
251.64	3.837
253.14	3.83
254.64	3.821
256.14	3.81
257.64	3.794
259.14	3.766
260.64	3.716
262.14	3.629
263.293	3.511
263.793	3.46
264.293	3.419
264.879	3.371
265.97	3.332
267.47	3.299
268.97	3.293
271.897	3.296
274.936	3.308
276.436	3.326
277.936	3.364
279.039	3.405
280.539	3.434
282.039	3.457
283.539	3.475
285.039	3.489
286.539	3.5
288.039	3.509
289.539	3.517
291.039	3.523
292.539	3.529
294.039	3.535
295.539	3.54
297.039	3.546
298.539	3.551
300.039	3.557
301.539	3.563
303.039	3.569
304.539	3.575
306.039	3.582
307.539	3.588
309.039	3.594
310.539	3.6
312.039	3.605
313.539	3.61
315.039	3.615
316.539	3.619
318.039	3.623
319.539	3.627
321.039	3.629
322.539	3.632
324.039	3.634
325.539	3.636
327.039	3.638
328.539	3.639
330.039	3.641
331.539	3.642
333.039	3.644
334.539	3.646
336.039	3.648
337.539	3.651
339.039	3.653
340.539	3.656
342.039	3.658
343.539	3.66
345.039	3.661
346.539	3.661
347.93	3.663
349.234	3.665
350.734	3.666
352.234	3.668
353.734	3.671
355.234	3.674
356.734	3.678
358.234	3.682
359.734	3.686
361.234	3.69
362.734	3.694
364.234	3.697
365.734	3.7
367.234	3.702
368.734	3.703
370.234	3.704
371.734	3.703
373.234	3.702
374.734	3.7
376.234	3.697
377.734	3.694
379.234	3.69
380.734	3.686
382.268	3.681
383.808	3.677
385.308	3.674
386.808	3.674
388.308	3.677
389.808	3.681
391.308	3.688
392.808	3.697
394.308	3.707
395.808	3.719
397.308	3.731
398.808	3.744
400.308	3.758
401.808	3.771
403.308	3.785
404.808	3.798
406.308	3.811
407.808	3.824
409.308	3.837
410.808	3.85
412.308	3.863
413.808	3.877
415.308	3.893
416.822	3.909
418.263	3.926
419.642	3.944
421.142	3.96
422.642	3.978
424.142	3.999
425.642	4.022
427.142	4.046
428.642	4.072
430.142	4.098
431.642	4.126
433.142	4.153
434.642	4.181
436.142	4.208
437.642	4.235
439.142	4.26
440.642	4.285
442.142	4.309
443.642	4.331
445.142	4.352
446.642	4.371
448.142	4.388
449.429	4.403
450.929	4.415
452.429	4.43
453.929	4.441
455.429	4.45
456.929	4.457
458.429	4.463
459.929	4.468
461.429	4.471
462.929	4.473
464.429	4.473
465.929	4.472
467.429	4.467
468.929	4.459
470.429	4.447
471.929	4.431
473.429	4.409
474.929	4.382
476.429	4.35
477.929	4.311
479.429	4.267
480.929	4.217
482.429	4.164
483.929	4.107
485.429	4.048
486.929	3.991
488.429	3.937
489.929	3.89
491.429	3.855
