Uv/Vis Spectrum: Dehydroacetic Acid
Formula: C8H8O4
CAS: 520-45-6
Melting point: 109
Boiling point: 270
Instrument: Beckman DU
Origin: INSTITUTE OF ENERGY PROBLEMS OF CHEMICAL PHYSICS, RAS
Wavelength (nm)	Logarithm epsilon
222.58	4.005
222.76	4.004
222.93	4.004
223.1	4.004
223.27	4.002
223.44	4.002
223.62	4
223.79	4
223.96	4
224.13	3.998
224.31	3.998
224.48	3.998
224.65	3.996
224.82	3.996
224.99	3.996
225.17	3.995
225.34	3.979
226.03	3.968
226.72	3.957
227.4	3.943
228.09	3.925
228.78	3.904
229.47	3.88
230.16	3.855
230.85	3.823
231.54	3.793
232.23	3.763
232.92	3.718
233.6	3.693
234.29	3.652
234.98	3.593
235.67	3.539
236.36	3.482
237.05	3.43
237.74	3.364
238.43	3.32
239.11	3.27
239.8	3.205
240.49	3.154
241.18	3.093
241.87	3.043
242.56	2.986
243.25	2.941
243.94	2.886
244.62	2.843
245.31	2.805
246	2.757
246.69	2.72
247.38	2.682
248.07	2.634
248.76	2.596
249.45	2.561
250.14	2.525
250.82	2.495
251.51	2.473
252.2	2.468
252.89	2.466
253.58	2.47
254.27	2.486
254.96	2.513
255.65	2.538
256.33	2.573
257.02	2.607
257.71	2.645
258.4	2.673
259.09	2.705
259.78	2.743
260.47	2.779
261.16	2.827
261.85	2.857
262.53	2.889
263.22	2.925
263.91	2.964
264.6	3
265.29	3.027
265.98	3.057
266.67	3.089
267.36	3.125
268.04	3.15
268.73	3.182
269.42	3.214
270.11	3.241
270.8	3.268
271.49	3.295
272.18	3.325
272.87	3.357
273.55	3.379
274.24	3.407
274.93	3.434
275.62	3.461
276.31	3.484
277	3.509
277.69	3.536
278.38	3.564
279.07	3.591
279.75	3.611
280.44	3.636
281.13	3.661
281.82	3.682
282.51	3.702
283.2	3.721
283.89	3.737
284.58	3.755
285.26	3.775
285.95	3.796
286.64	3.814
287.33	3.832
288.02	3.848
288.71	3.866
289.4	3.882
290.09	3.9
290.77	3.916
291.46	3.932
292.15	3.948
292.84	3.961
293.53	3.971
294.22	3.984
294.91	3.993
295.6	4.002
296.29	4.009
296.97	4.018
297.66	4.025
298.35	4.03
299.04	4.036
299.73	4.041
300.42	4.043
301.11	4.046
301.8	4.048
302.48	4.048
303.17	4.046
303.86	4.045
304.55	4.043
305.24	4.039
305.93	4.034
306.62	4.03
307.31	4.025
308	4.02
308.68	4.014
309.37	4.005
310.06	3.998
310.75	3.989
311.44	3.98
312.13	3.971
312.82	3.955
313.51	3.943
314.19	3.929
314.88	3.913
315.57	3.896
316.26	3.88
316.95	3.862
317.64	3.841
318.33	3.816
319.02	3.793
319.7	3.771
320.39	3.745
321.08	3.714
321.77	3.686
322.46	3.655
323.15	3.621
323.84	3.571
324.53	3.541
325.22	3.504
325.9	3.454
326.59	3.407
327.28	3.343
327.97	3.288
328.66	3.216
329.35	3.146
330.04	3.075
330.73	3.004
331.41	2.932
332.1	2.861
332.79	2.789
333.48	2.718
334.17	2.646
