Uv/Vis Spectrum: N-(3-Nitrophenyl)-2-furancarboxamide
Formula: C11H8N2O4
CAS: 52109-85-0
Melting point: 145
Instrument: Hitachi-Perkin-Elmer EPS-3T
Origin: INSTITUTE OF ENERGY PROBLEMS OF CHEMICAL PHYSICS, RAS
Wavelength (nm)	Logarithm epsilon
210.686	3.961
211.686	3.966
212.686	3.966
213.686	3.964
214.686	3.962
215.686	3.958
216.686	3.949
217.686	3.935
218.686	3.914
219.686	3.889
220.269	3.879
220.98	3.867
221.862	3.856
222.862	3.848
223.862	3.842
224.862	3.839
225.862	3.838
226.862	3.839
227.862	3.842
228.862	3.846
229.862	3.851
230.862	3.858
231.862	3.864
232.862	3.872
233.862	3.88
234.862	3.888
235.862	3.897
236.862	3.907
237.862	3.918
238.862	3.931
239.862	3.944
239.915	3.942
240.915	3.956
241.915	3.971
242.915	3.988
243.915	4.005
244.915	4.024
245.915	4.043
246.915	4.063
247.915	4.083
248.915	4.103
249.915	4.123
250.915	4.143
251.915	4.163
252.915	4.183
253.915	4.202
254.915	4.221
255.915	4.239
256.915	4.257
257.915	4.274
258.915	4.29
259.915	4.305
260.915	4.32
261.915	4.334
262.915	4.347
263.915	4.359
264.915	4.37
265.915	4.38
266.915	4.389
267.915	4.398
268.915	4.405
269.915	4.412
270.915	4.418
271.915	4.422
272.915	4.426
273.915	4.429
274.915	4.431
275.915	4.431
276.915	4.431
277.915	4.429
278.915	4.426
279.915	4.422
280.915	4.416
281.915	4.408
282.915	4.399
283.915	4.388
284.915	4.375
285.452	4.365
286.012	4.354
287.012	4.339
288.012	4.324
289.012	4.306
290.012	4.285
291.012	4.261
292.012	4.234
293.012	4.206
294.012	4.179
295.012	4.153
296.012	4.128
297.012	4.102
298.012	4.072
299.09	4.027
