Uv/Vis Spectrum: N-(4-Chlorophenyl)-3-furancarboxamide
Formula: C11H8ClNO2
CAS: 52109-91-8
Melting point: 152
Instrument: Hitachi-Perkin-Elmer EPS-3T
Origin: INSTITUTE OF ENERGY PROBLEMS OF CHEMICAL PHYSICS, RAS
Wavelength (nm)	Logarithm epsilon
211.397	4.174
212.397	4.105
213.397	4.039
214.397	3.98
215.397	3.926
216.397	3.879
217.397	3.84
218.397	3.808
219.397	3.783
220.397	3.765
221.397	3.754
222.397	3.748
223.397	3.746
224.397	3.748
225.397	3.753
226.397	3.76
227.397	3.768
228.397	3.775
229.397	3.783
230.397	3.79
231.397	3.797
232.416	3.806
233.415	3.817
234.43	3.829
235.43	3.845
236.43	3.86
237.43	3.877
238.43	3.893
239.43	3.91
240.43	3.926
241.43	3.942
242.43	3.958
243.43	3.973
244.43	3.989
245.43	4.004
246.43	4.018
247.43	4.033
248.43	4.047
249.43	4.061
250.43	4.074
251.43	4.087
252.43	4.1
253.611	4.115
254.611	4.126
255.611	4.137
256.611	4.147
257.611	4.157
258.611	4.167
259.611	4.176
260.611	4.184
261.611	4.191
262.611	4.197
263.611	4.202
264.611	4.205
265.611	4.207
266.611	4.207
267.611	4.205
268.611	4.202
269.611	4.197
270.611	4.19
271.611	4.182
272.611	4.173
273.611	4.163
274.611	4.151
275.611	4.139
276.611	4.126
277.611	4.113
278.611	4.099
280.43	4.07
281.43	4.053
282.43	4.034
283.43	4.015
284.43	3.994
285.43	3.973
286.43	3.949
287.43	3.924
288.43	3.897
289.43	3.868
290.43	3.837
291.43	3.802
292.43	3.765
293.43	3.725
294.43	3.681
295.43	3.633
296.43	3.582
297.43	3.528
