Uv/Vis Spectrum: N-(3-Methoxyphenyl)-2-furancarboxamide
Formula: C12H11NO3
CAS: 52109-84-9
Melting point: 168
Instrument: Hitachi-Perkin-Elmer EPS-3T
Origin: INSTITUTE OF ENERGY PROBLEMS OF CHEMICAL PHYSICS, RAS
Wavelength (nm)	Logarithm epsilon
210.469	4.362
210.65	4.362
210.816	4.355
211.816	4.331
212.816	4.309
213.816	4.287
214.816	4.264
215.816	4.239
216.816	4.21
217.816	4.179
218.816	4.147
219.816	4.114
220.816	4.081
221.816	4.049
222.816	4.02
223.816	3.993
224.816	3.971
225.816	3.952
226.816	3.937
227.816	3.925
228.816	3.917
229.816	3.91
230.816	3.905
231.816	3.901
232.816	3.896
233.816	3.891
234.816	3.886
235.816	3.881
236.565	3.883
237.641	3.883
238.717	3.883
239.741	3.884
240.741	3.875
241.741	3.863
242.741	3.847
243.741	3.826
244.741	3.797
245.741	3.756
246.741	3.701
247.741	3.631
248.741	3.544
249.644	3.454
250.644	3.355
251.644	3.28
252.644	3.224
253.644	3.182
254.644	3.152
255.644	3.131
256.644	3.118
257.644	3.113
258.644	3.115
259.644	3.124
260.644	3.14
261.644	3.16
262.644	3.184
263.718	3.209
264.44	3.227
265.131	3.246
266.131	3.273
267.131	3.301
268.131	3.325
269.131	3.347
270.131	3.367
271.131	3.386
272.131	3.401
273.131	3.407
273.825	3.394
274.363	3.381
275.089	3.379
275.843	3.386
276.534	3.395
277.256	3.403
277.978	3.399
278.7	3.388
279.422	3.363
280.012	3.329
281.154	3.277
282.154	3.218
283.154	3.17
284.154	3.132
285.154	3.103
286.154	3.082
287.154	3.066
288.154	3.054
289.154	3.042
290.154	3.029
291.154	3.012
292.154	2.991
293.154	2.965
294.154	2.933
295.154	2.897
296.154	2.858
