Uv/Vis Spectrum: 9,10-Dibromoanthracene
Formula: C14H8Br2
CAS: 523-27-3
Melting point: 226
Boiling point: sub
Instrument: Zeiss PMQ II
Origin: INSTITUTE OF ENERGY PROBLEMS OF CHEMICAL PHYSICS, RAS
Wavelength (nm)	Logarithm epsilon
417.331	2.67839
416.613	2.7749
416.257	2.77717
415.574	2.94321
415.22	2.94523
414.533	3.0944
414.18	3.09667
413.499	3.25213
413.149	3.25415
412.467	3.4013
412.118	3.40332
411.437	3.54215
411.089	3.54417
410.414	3.68931
410.069	3.69133
409.395	3.83218
409.051	3.8342
408.389	3.99621
408.047	3.99823
407.348	4.06349
407.007	4.0635
405.225	4.06353
404.88	4.04665
404.157	4.02978
403.811	4.00459
403.092	3.98772
402.746	3.96052
402.066	3.92677
401.356	3.91645
401.009	3.87841
400.299	3.85952
399.957	3.82803
399.244	3.79252
398.91	3.77766
398.211	3.76709
397.875	3.7419
397.178	3.7273
396.844	3.70412
396.151	3.68952
395.818	3.66635
395.129	3.65376
394.8	3.63285
394.114	3.618
393.788	3.60339
393.108	3.59484
390.817	3.59916
390.156	3.61403
389.843	3.61404
389.194	3.65184
388.883	3.65386
388.249	3.72114
387.94	3.72316
387.315	3.80732
387.007	3.80934
386.388	3.8998
386.081	3.90182
385.459	3.97767
385.154	3.97969
384.527	4.03437
384.224	4.03639
383.591	4.0679
383.289	4.0679
382.349	4.07649
381.411	4.07423
380.81	4.06593
380.469	4.05107
379.87	4.04075
379.527	4.01758
378.931	4.00499
378.589	3.9798
377.988	3.94605
377.357	3.92717
377.052	3.89366
376.424	3.87251
376.119	3.83472
375.494	3.81382
375.191	3.77805
374.57	3.76118
374.27	3.72768
373.652	3.71081
373.354	3.68133
372.74	3.66472
372.444	3.63524
371.833	3.62064
371.544	3.60779
369.776	3.60581
369.183	3.6164
368.903	3.61842
368.317	3.64363
368.039	3.6459
367.457	3.67312
367.179	3.67313
366.602	3.7069
366.327	3.70892
365.756	3.75302
365.481	3.75504
364.916	3.80973
364.643	3.812
364.069	3.83091
363.797	3.83293
362.949	3.83723
361.833	3.83296
361.528	3.82667
360.988	3.81837
360.714	3.79947
360.141	3.78664
359.866	3.75943
359.294	3.74055
359.017	3.70704
358.447	3.68387
358.171	3.6481
357.604	3.62922
357.333	3.60176
356.769	3.58287
356.499	3.55768
355.94	3.5451
355.673	3.52419
355.116	3.5116
354.851	3.49473
354.298	3.48416
354.034	3.46753
353.484	3.45696
353.223	3.44437
352.675	3.43607
352.417	3.42751
351.873	3.42323
349.5	3.42328
349	3.42959
348.718	3.42959
348.222	3.44019
347.942	3.44246
347.448	3.45507
347.169	3.45709
346.68	3.476
345.91	3.48231
345.143	3.48434
344.104	3.48235
343.614	3.47404
343.339	3.46548
342.851	3.45516
342.604	3.43829
342.088	3.42772
341.842	3.40882
341.329	3.39825
341.083	3.37936
340.572	3.36678
340.327	3.34587
339.817	3.33328
339.573	3.31011
339.065	3.29551
338.822	3.27435
338.316	3.25773
338.074	3.23456
337.57	3.21769
337.33	3.19678
336.828	3.17991
336.588	3.15875
336.09	3.14616
335.853	3.12954
335.357	3.11695
335.122	3.10638
334.63	3.10009
334.397	3.09178
333.908	3.08751
333.449	3.0855
333.19	3.07921
332.476	3.07494
332.02	3.07067
331.538	3.0664
330.831	3.06011
329.903	3.05812
329.65	3.05384
329.203	3.04982
328.729	3.04756
328.256	3.04354
327.34	3.03097
326.871	3.02669
326.649	3.01838
326.208	3.0121
325.959	2.99951
325.519	2.98893
325.269	2.97004
324.83	2.95745
324.579	2.93
324.142	2.91741
323.894	2.89651
323.459	2.88392
323.211	2.86075
322.778	2.84816
322.531	2.82498
322.099	2.81038
321.854	2.78922
321.425	2.77664
321.181	2.76001
320.754	2.74743
320.511	2.72854
320.086	2.71796
319.844	2.69907
319.421	2.6885
319.18	2.66961
318.758	2.65904
318.545	2.64242
318.1	2.63814
317.891	2.63185
317.448	2.62758
317.239	2.62128
316.798	2.615
316.591	2.61072
316.152	2.60871
315.509	2.60041
315.301	2.58984
314.866	2.58783
314.661	2.58154
314.023	2.57299
313.794	2.56896
313.388	2.56268
313.159	2.5584
312.755	2.55211
312.526	2.5438
312.124	2.53953
311.896	2.53122
311.495	2.52468
311.293	2.51435
310.868	2.50807
310.666	2.49749
310.243	2.48918
310.041	2.47432
309.619	2.46401
309.418	2.45141
308.998	2.44084
308.797	2.42195
308.378	2.41138
308.18	2.4008
307.762	2.38822
307.563	2.37361
307.149	2.36732
306.953	2.35901
306.539	2.35046
306.344	2.34215
305.933	2.33787
305.521	2.32529
304.92	2.31699
304.728	2.31271
304.13	2.30643
303.345	2.30015
301.394	2.30222
300.601	2.30451
300.231	2.31082
300.023	2.31082
299.654	2.31486
299.263	2.32117
299.079	2.32118
298.69	2.32976
298.507	2.32976
298.12	2.3401
297.937	2.3401
297.551	2.3507
297.369	2.3507
296.986	2.3613
296.804	2.3613
296.422	2.37391
296.242	2.37593
295.862	2.3908
295.682	2.39283
295.304	2.40745
295.125	2.40972
294.748	2.42636
294.57	2.42863
294.195	2.44754
294.017	2.44956
293.643	2.46444
293.466	2.46646
293.094	2.48335
292.917	2.48537
292.547	2.50629
292.372	2.50856
292.003	2.52949
291.827	2.52949
291.482	2.55066
291.286	2.55269
290.942	2.57789
290.747	2.57991
290.404	2.60109
290.209	2.60311
289.868	2.62831
289.674	2.63058
289.335	2.65781
289.142	2.65983
288.803	2.68503
288.611	2.6873
288.274	2.71453
288.082	2.7168
287.746	2.73772
287.555	2.73974
287.22	2.76495
287.029	2.76722
286.695	2.78814
286.505	2.79016
286.173	2.81562
285.984	2.81764
285.652	2.83856
285.484	2.83857
285.134	2.86604
284.967	2.86806
284.617	2.88898
284.451	2.89126
284.103	2.91848
283.937	2.91848
283.59	2.94595
283.425	2.94798
283.08	2.9752
282.916	2.97747
282.571	3.00066
282.407	3.00268
282.065	3.03418
281.902	3.0362
281.56	3.06569
281.398	3.06771
281.058	3.09947
280.896	3.10149
280.558	3.13501
280.397	3.13728
280.061	3.17508
279.9	3.17711
279.566	3.21718
279.405	3.2192
279.071	3.25297
278.911	3.25499
278.578	3.28649
278.418	3.2865
278.087	3.3243
277.928	3.32632
277.598	3.36437
277.44	3.3664
