Uv/Vis Spectrum: 1,2-Naphthoquinone
Formula: C10H6O2
CAS: 524-42-5
Melting point: 146
Instrument: n.i.g.
Origin: INSTITUTE OF ENERGY PROBLEMS OF CHEMICAL PHYSICS, RAS
Wavelength (nm)	Logarithm epsilon
221.989	3.99552
222.101	3.99418
222.888	3.98969
225.026	3.97816
225.026	3.97816
225.321	3.97772
225.592	3.97739
225.852	3.97712
225.852	3.97712
225.94	3.97635
226.004	3.97564
226.058	3.97505
226.729	3.974
228.139	3.97398
229.573	3.97396
231.018	3.97393
231.018	3.97393
231.5	3.97599
232.005	3.97804
232.522	3.9801
232.522	3.9801
233.147	3.9843
233.783	3.98861
234.443	3.99298
234.443	3.99298
234.608	3.99699
234.784	3.9998
235.122	4.00381
235.122	4.00381
235.448	4.00511
235.798	4.00646
236.159	4.00792
236.159	4.00792
236.214	4.0111
236.282	4.01439
236.372	4.01773
236.372	4.01773
238.429	4.0492
239.702	4.06828
240.719	4.08272
242.011	4.10026
242.011	4.10026
242.166	4.10129
242.322	4.10232
242.478	4.10335
242.478	4.10335
242.599	4.10696
242.743	4.11057
242.899	4.11418
242.899	4.11418
244.259	4.12742
245.769	4.14072
248.723	4.16547
248.723	4.16547
248.997	4.16573
249.293	4.16605
249.602	4.16648
250.225	4.16983
250.225	4.16983
250.232	4.1667
250.298	4.1653
250.479	4.1644
250.948	4.16982
251.672	4.16981
252.395	4.16979
252.395	4.16979
252.908	4.16617
253.409	4.16255
253.887	4.15892
253.887	4.15892
254.415	4.15295
255.237	4.14128
257.06	4.11394
257.06	4.11394
257.703	4.09244
258.342	4.07093
258.971	4.04943
259.585	4.02792
259.585	4.02792
260.317	3.99654
260.733	3.97739
260.986	3.96265
261.233	3.94449
261.233	3.94449
261.617	3.93455
262.166	3.9156
263.354	3.87139
263.354	3.87139
263.787	3.84711
264.197	3.82283
264.596	3.79855
264.596	3.79855
264.884	3.78985
265.15	3.78125
265.405	3.77272
265.405	3.77272
265.849	3.76523
266.271	3.75773
266.681	3.75024
266.681	3.75024
267.411	3.73434
267.938	3.72418
268.363	3.71483
268.363	3.71483
270.291	3.68884
271.231	3.67663
271.588	3.67063
271.588	3.67063
271.882	3.66882
272.152	3.66708
272.412	3.66545
272.412	3.66545
272.858	3.66035
273.281	3.65537
273.693	3.65045
273.693	3.65045
275.057	3.6405
276.444	3.63124
279.044	3.61473
279.044	3.61473
280.485	3.60858
281.914	3.60255
283.321	3.59658
283.321	3.59658
285.06	3.59217
286.776	3.58782
288.481	3.58358
288.481	3.58358
289.498	3.58209
290.492	3.58072
291.475	3.5794
292.146	3.5781
294.782	3.57839
297.418	3.57879
300.055	3.57925
300.055	3.57925
300.833	3.58027
301.622	3.58129
302.434	3.58231
302.434	3.58231
302.709	3.58361
303.007	3.58496
303.316	3.58643
303.316	3.58643
304.004	3.58746
304.715	3.58854
305.437	3.58975
305.437	3.58975
307.792	3.59603
309.296	3.60049
311.238	3.60695
311.238	3.60695
312.196	3.60854
312.867	3.61013
313.826	3.6131
313.826	3.6131
313.945	3.61414
314.088	3.61524
314.242	3.61645
314.242	3.61645
316.106	3.6221
317.971	3.62774
319.835	3.63339
319.835	3.63339
322.365	3.64271
323.869	3.64797
325.638	3.65369
325.638	3.65369
326.638	3.65788
327.661	3.66219
328.696	3.66655
328.696	3.66655
329.834	3.6686
330.973	3.67072
332.111	3.67294
332.111	3.67294
332.835	3.6732
333.559	3.67351
334.283	3.67394
334.283	3.67394
334.544	3.6753
334.817	3.67678
335.113	3.67832
335.113	3.67832
337.904	3.67854
340.695	3.67881
343.486	3.6792
343.486	3.6792
344.433	3.67602
345.049	3.67434
345.859	3.67271
345.859	3.67271
346.607	3.66933
347.516	3.66555
348.435	3.66079
350.135	3.65224
350.287	3.65043
350.427	3.64862
350.545	3.64681
350.545	3.64681
351.678	3.64437
352.628	3.64188
354.207	3.63719
354.207	3.63719
354.36	3.63616
354.501	3.63512
354.619	3.63409
354.619	3.63409
355.685	3.63058
357.129	3.6266
360.19	3.61876
360.19	3.61876
361.595	3.61606
363.138	3.61285
364.681	3.61016
364.681	3.61016
365.742	3.60807
367.216	3.60591
368.552	3.60364
368.552	3.60364
371.07	3.60359
373.564	3.60355
376.046	3.60351
376.046	3.60351
377.051	3.60598
378.941	3.60975
382.051	3.61632
382.051	3.61632
383.083	3.61706
384.104	3.61775
385.101	3.61833
385.101	3.61833
387.381	3.62146
388.374	3.62311
388.93	3.62472
388.93	3.62472
393.096	3.62843
396.401	3.63165
400.567	3.63536
400.567	3.63536
401.43	3.63535
402.27	3.63533
403.099	3.63532
403.099	3.63532
404.12	3.63376
405.245	3.6326
407.437	3.63086
407.437	3.63086
408.935	3.62858
410.432	3.62642
411.929	3.62432
411.929	3.62432
413.654	3.6193
415.241	3.61394
416.416	3.6103
416.416	3.6103
417.363	3.60681
419.181	3.60066
421.572	3.59214
421.572	3.59214
422.36	3.58781
423.961	3.58041
426.466	3.5683
426.466	3.5683
427.132	3.56398
427.788	3.55977
428.421	3.55562
428.421	3.55562
428.833	3.55407
429.246	3.55258
429.658	3.55121
429.658	3.55121
430.911	3.54411
432.472	3.53431
435.679	3.51341
435.679	3.51341
435.972	3.51056
436.242	3.50772
436.5	3.50487
436.5	3.50487
436.808	3.5041
437.104	3.50339
437.377	3.50279
437.377	3.50279
437.464	3.50125
437.529	3.49977
437.581	3.4984
437.581	3.4984
438.029	3.49614
438.455	3.49401
438.869	3.49192
438.869	3.49192
438.956	3.49045
439.02	3.48909
439.073	3.48779
439.073	3.48779
440.922	3.47389
441.868	3.46718
442.724	3.46191
442.724	3.46191
442.811	3.46036
442.875	3.45888
442.928	3.45751
442.928	3.45751
443.736	3.45182
444.521	3.44612
445.294	3.44043
445.294	3.44043
445.381	3.43889
445.445	3.43741
445.498	3.43604
445.498	3.43604
445.858	3.43378
446.218	3.43165
446.576	3.42543
446.576	3.42543
446.576	3.42673
446.577	3.42809
446.578	3.42957
446.578	3.42957
447.172	3.42141
447.505	3.41859
447.86	3.41457
447.86	3.41457
448.154	3.41309
448.425	3.41173
448.684	3.41042
448.684	3.41042
448.963	3.40632
449.345	3.40228
449.761	3.39749
449.761	3.39749
449.914	3.39705
450.055	3.39672
450.173	3.39645
450.173	3.39645
450.62	3.39102
451.043	3.38559
451.454	3.38017
451.454	3.38017
451.607	3.37972
451.749	3.3794
451.867	3.37913
451.867	3.37913
453.392	3.36459
454.004	3.35822
454.228	3.35456
454.228	3.35456
454.535	3.35301
454.83	3.35152
455.103	3.35015
455.103	3.35015
455.952	3.33974
457.109	3.32721
459.567	3.30179
459.567	3.30179
460.544	3.28971
462.058	3.27216
463.206	3.25784
463.206	3.25784
463.564	3.25526
463.911	3.25274
464.234	3.25033
464.234	3.25033
464.715	3.24548
465.355	3.23815
466.523	3.2238
468.589	3.19792
471.922	3.15596
471.922	3.15596
475.253	3.11181
477.315	3.08433
478.474	3.06849
479.098	3.05931
479.551	3.05177
479.551	3.05177
479.998	3.04703
480.42	3.04092
480.832	3.03548
