Uv/Vis Spectrum: Benzene, 1,2,3-trimethyl-
Formula: C9H12
CAS: 526-73-8
Melting point: -25.4
Boiling point: 176.1
Instrument: Zeiss PMQ II or M4Q III
Origin: INSTITUTE OF ENERGY PROBLEMS OF CHEMICAL PHYSICS, RAS
Wavelength (nm)	Logarithm epsilon
278.323	1.13047
278.184	1.16493
278.044	1.19938
277.902	1.23382
277.76	1.26825
277.672	1.37578
277.672	1.37578
277.617	1.30267
277.605	1.38426
277.566	1.37443
277.497	1.38871
277.474	1.33706
277.451	1.37296
277.331	1.37144
277.331	1.37144
277.256	1.39294
277.256	1.39294
277.163	1.32461
277.057	1.32255
276.942	1.32044
276.872	1.46314
276.823	1.31822
276.529	1.52608
276.223	1.58232
275.951	1.63237
275.709	1.67678
275.494	1.71608
275.303	1.75082
275.134	1.78152
274.982	1.80873
274.844	1.83298
274.719	1.85482
274.602	1.87477
274.49	1.89337
274.381	1.91116
274.272	1.92868
274.158	1.94647
274.038	1.96506
273.909	1.98498
273.767	2.00678
273.767	2.00678
273.358	2.035
272.858	2.05736
271.925	2.0803
271.925	2.0803
271.543	2.11991
271.154	2.1594
270.762	2.19883
270.762	2.19883
270.453	2.20838
270.093	2.2115
269.344	2.21066
269.344	2.21066
269.3	2.20887
269.248	2.20708
269.192	2.20529
269.192	2.20529
268.91	2.2053
268.623	2.20531
268.329	2.20532
268.329	2.20532
267.502	2.25591
267.045	2.28028
266.563	2.2993
266.563	2.2993
265.454	2.31446
264.482	2.30959
263.014	2.30378
263.014	2.30378
262.817	2.3096
262.616	2.3153
262.408	2.32095
262.408	2.32095
262.171	2.32139
261.926	2.32172
261.677	2.322
261.677	2.322
261.191	2.30993
260.78	2.29598
260.414	2.28135
260.414	2.28135
260.047	2.27635
259.537	2.27113
258.453	2.2612
258.453	2.2612
256.82	2.2318
254.943	2.19719
253.306	2.16023
252.367	2.12374
252.367	2.12374
251.769	2.10567
251.275	2.08276
250.65	2.06827
250.65	2.06827
249.902	2.03693
249.14	2.00541
248.369	1.97371
247.592	1.94183
246.814	1.90976
246.04	1.87749
245.272	1.84501
244.515	1.81233
244.515	1.81233
242.685	1.7241
241.276	1.65532
240.222	1.60349
239.463	1.56612
238.942	1.5407
238.605	1.52473
238.4	1.51572
238.275	1.51116
238.179	1.50855
238.179	1.50855
236.573	1.43615
235.642	1.39557
235.308	1.37942
235.308	1.37942
234.95	1.37054
234.573	1.36268
233.933	1.35722
233.933	1.35722
232.527	1.39443
231.924	1.4431
231.628	1.50271
231.616	1.48964
231.616	1.48964
231.585	1.51505
231.328	1.52472
231.328	1.52472
231.128	1.55648
230.933	1.58825
230.744	1.62002
230.56	1.65179
230.38	1.68356
230.205	1.71533
230.035	1.7471
229.868	1.77886
229.705	1.81063
229.546	1.84239
229.39	1.87416
229.238	1.90592
229.088	1.93768
228.941	1.96944
228.796	2.0012
228.654	2.03295
228.513	2.06471
228.375	2.09645
228.238	2.1282
228.102	2.15994
227.968	2.19168
227.834	2.22342
227.701	2.25515
227.569	2.28688
227.437	2.3186
227.305	2.35032
227.173	2.38203
227.04	2.41374
226.907	2.44545
226.773	2.47715
226.638	2.50884
226.502	2.54053
226.365	2.57221
226.226	2.60388
226.085	2.63555
225.942	2.66721
225.942	2.66721
224.917	2.68396
224	2.69974
223.173	2.72058
223.173	2.72058
223.026	2.75183
222.881	2.78313
222.738	2.81448
222.596	2.84587
222.455	2.8773
222.315	2.90877
222.176	2.94026
222.036	2.97178
221.896	3.00333
221.755	3.03489
221.613	3.06646
221.468	3.09805
221.322	3.12964
221.173	3.16123
221.022	3.19282
220.867	3.22441
220.708	3.25598
220.546	3.28753
220.378	3.31907
220.207	3.35058
220.029	3.38207
219.847	3.41352
219.658	3.44494
219.463	3.47632
219.262	3.50765
219.053	3.53894
218.837	3.57017
218.613	3.60135
218.381	3.63246
218.141	3.66351
217.892	3.6945
217.634	3.7254
217.634	3.7254
217.229	3.76607
216.822	3.80221
216.343	3.83475
215.726	3.86463
214.904	3.89277
213.816	3.92011
212.403	3.94758
212.403	3.94758
212.059	3.95635
211.741	3.96274
211.298	3.96914
211.298	3.96914
209.589	3.97171
207.914	3.97534
206.261	3.97993
204.62	3.98539
204.62	3.98539
204.183	3.99286
203.712	3.99932
203.229	4.00697
203.229	4.00697
202.44	4.03631
201.787	4.06777
201.249	4.10092
200.805	4.13535
200.434	4.17065
200.116	4.20639
199.831	4.24217
199.559	4.27757
199.282	4.31218
198.98	4.34557
198.98	4.34557
198.755	4.36837
198.46	4.39448
198.088	4.42983
198.086	4.41268
197.667	4.47716
197.315	4.51907
196.986	4.55695
196.839	4.60087
196.828	4.59908
196.815	4.59729
196.798	4.5955
196.639	4.61138
196.637	4.59218
196.637	4.59218
196.599	4.61215
196.557	4.59372
196.556	4.61292
196.509	4.61369
196.474	4.59519
196.387	4.59655
196.387	4.59655
196.206	4.63362
195.717	4.67174
195.009	4.70724
194.173	4.73643
194.173	4.73643
193.825	4.73959
193.489	4.74127
192.88	4.74292
192.88	4.74292
191.497	4.73775
190.368	4.72827
189.479	4.70885
188.816	4.67383
188.816	4.67383
188.767	4.67384
188.714	4.67384
188.659	4.67385
188.659	4.67385
188.304	4.65768
187.886	4.64078
187.515	4.62069
187.515	4.62069
187.182	4.60143
186.699	4.56939
186.375	4.55013
186.375	4.55013
186.334	4.54589
186.26	4.54108
186.22	4.5353
186.22	4.5353
185.612	4.50998
185.137	4.47816
184.765	4.44787
184.765	4.44787
184.178	4.41807
183.548	4.38525
183.149	4.35304
183.149	4.35304
182.585	4.3197
182.161	4.28498
