Uv/Vis Spectrum: Quinoline, 6-methoxy-
Formula: C10H9NO
CAS: 5263-87-6
Melting point: 26.5
Boiling point: 306; 153(12)
Instrument: n.i.g.
Origin: INSTITUTE OF ENERGY PROBLEMS OF CHEMICAL PHYSICS, RAS
Wavelength (nm)	Logarithm epsilon
220	4.41
221	4.56
222	4.66
223	4.76
224	4.75
225	4.75
226	4.74
227	4.73
228	4.73
229	4.72
230	4.71
231	4.7
232	4.66
233	4.63
234	4.59
235	4.55
236	4.51
237	4.48
238	4.43
239	4.32
240	4.25
241	4.13
242	3.88
243	3.72
244	3.63
245	3.54
246	3.48
247	3.54
248	3.47
249	3.41
250	3.4
251	3.4
252	3.4
253	3.4
254	3.42
255	3.44
256	3.46
257	3.49
258	3.5
259	3.53
260	3.55
261	3.56
262	3.57
263	3.57
264	3.58
265	3.58
266	3.59
267	3.59
268	3.59
269	3.58
270	3.57
271	3.56
272	3.56
273	3.56
274	3.56
275	3.55
276	3.53
277	3.52
278	3.5
279	3.49
280	3.49
281	3.48
282	3.47
283	3.46
284	3.45
285	3.44
286	3.42
287	3.41
288	3.39
289	3.37
290	3.36
291	3.34
292	3.33
293	3.33
294	3.33
295	3.33
296	3.34
297	3.34
298	3.35
299	3.36
300	3.39
301	3.42
302	3.44
303	3.46
304	3.47
305	3.48
306	3.49
307	3.5
308	3.51
309	3.51
310	3.52
311	3.53
312	3.53
313	3.54
314	3.55
315	3.55
316	3.56
317	3.57
318	3.59
319	3.6
320	3.62
321	3.64
322	3.65
323	3.67
324	3.69
325	3.71
326	3.72
327	3.71
328	3.71
329	3.7
330	3.67
331	3.64
332	3.6
333	3.55
334	3.49
335	3.43
336	3.36
337	3.26
338	3.2
339	3.12
340	3.05
341	2.98
342	2.91
343	2.82
344	2.73
345	2.65
346	2.48
347	2.45
348	2.24
349	2.2
