Uv/Vis Spectrum: Tetrafluoro-1,4-benzoquinone
Formula: C6F4O2
CAS: 527-21-9
Melting point: 183-186
Boiling point: sub
Instrument: Spectrophotometer SF-16
Origin: INSTITUTE OF ENERGY PROBLEMS OF CHEMICAL PHYSICS, RAS
Wavelength (nm)	Logarithm epsilon
230	3.48001
231	3.47
232	3.46
233	3.44
234	3.43
235	3.41
236	3.4
237	3.38
238	3.35
239	3.33
240	3.32
241	3.31
242	3.3
243	3.29
244	3.28
245	3.27
246	3.26
247	3.25
248	3.24
249	3.24
250	3.22999
251	3.22
252	3.22
253	3.21
254	3.2
255	3.2
256	3.19
257	3.18
258	3.18
259	3.17
260	3.17
261	3.16
262	3.16
263	3.15
264	3.14
265	3.14
266	3.13
267	3.12
268	3.12
269	3.11
270	3.09999
271	3.1
272	3.09
273	3.08
274	3.08
275	3.07
276	3.06
277	3.05
278	3.04
279	3.03
280	3.01999
281	3.01
282	2.99
283	2.98
284	2.96
285	2.94
286	2.92
287	2.88
288	2.86
289	2.84
290	2.83
291	2.81
292	2.8
293	2.78
294	2.77
295	2.75
296	2.74
297	2.72
298	2.71
299	2.69
300	2.68
301	2.66
302	2.65
303	2.63
304	2.62
305	2.61
306	2.59
307	2.58
308	2.57
309	2.55
310	2.55
311	2.54
312	2.53
313	2.52
314	2.51
315	2.5
316	2.5
317	2.49
318	2.48
319	2.48
320	2.48001
321	2.48
322	2.48
323	2.48
324	2.47
325	2.47
326	2.47
327	2.47
328	2.47
329	2.47
330	2.48001
331	2.48
332	2.48
333	2.48
334	2.48
335	2.48
336	2.49
337	2.49
338	2.5
339	2.51
340	2.50999
341	2.52
342	2.52
343	2.53
344	2.54
345	2.55
346	2.55
347	2.56
348	2.57
349	2.58
350	2.58
351	2.59
352	2.6
353	2.61
354	2.62
355	2.63
356	2.64
357	2.64
358	2.65
359	2.66
360	2.67001
361	2.68
362	2.69
363	2.7
364	2.71
365	2.72
366	2.73
367	2.74
368	2.74
369	2.75
370	2.76
371	2.77
372	2.78
373	2.79
374	2.79
375	2.8
376	2.81
377	2.82
378	2.82
379	2.83
380	2.84
381	2.84
382	2.85
383	2.86
384	2.86
385	2.87
386	2.87
387	2.88
388	2.88
389	2.89
390	2.89
391	2.9
392	2.91
393	2.91
394	2.92
395	2.92
396	2.93
397	2.93
398	2.93
399	2.94
400	2.94
401	2.94
402	2.94
403	2.94
404	2.95
405	2.95
406	2.95
407	2.95
408	2.95
409	2.94
410	2.94
411	2.94
412	2.94
413	2.94
414	2.94
415	2.94
416	2.93
417	2.93
418	2.93
419	2.92
420	2.92
421	2.92
422	2.91
423	2.91
424	2.9
425	2.9
426	2.89
427	2.88
428	2.88
429	2.87
430	2.86
431	2.86
432	2.85
433	2.84
434	2.83
435	2.82
436	2.81
437	2.8
438	2.78
439	2.77
440	2.76
441	2.74
442	2.73
443	2.71
444	2.69
445	2.68
446	2.66
447	2.64
448	2.63
449	2.61
450	2.59001
451	2.57
452	2.55
453	2.53
454	2.51
455	2.5
456	2.48
457	2.46
458	2.45
459	2.43
460	2.41
461	2.39
462	2.37
463	2.35
464	2.33
465	2.3
466	2.28
467	2.26
468	2.23
469	2.21
