Uv/Vis Spectrum: Duroquinone
Formula: C10H12O2
CAS: 527-17-3
Melting point: 111.5
Instrument: Spectrophotometer SF-16
Origin: INSTITUTE OF ENERGY PROBLEMS OF CHEMICAL PHYSICS, RAS
Wavelength (nm)	Logarithm epsilon
220	3.32
221	3.32
222	3.32
223	3.32
224	3.32
225	3.32
226	3.31
227	3.31
228	3.33
229	3.35
230	3.36999
231	3.4
232	3.43
233	3.46
234	3.49
235	3.53
236	3.57
237	3.6
238	3.64
239	3.68
240	3.72
241	3.76
242	3.8
243	3.83
244	3.87
245	3.9
246	3.93
247	3.96
248	3.99
249	4.02
250	4.04999
251	4.08
252	4.1
253	4.13
254	4.15
255	4.17
256	4.19
257	4.23
258	4.24
259	4.26
260	4.27
261	4.27
262	4.27
263	4.27
264	4.27
265	4.28
266	4.28
267	4.28
268	4.29
269	4.28
270	4.28001
271	4.26
272	4.24
273	4.19
274	4.12
275	4.05
276	3.98
277	3.9
278	3.81
279	3.72
280	3.62
281	3.5
282	3.39
283	3.26
284	3.12
285	2.98
286	2.84
287	2.7
288	2.55
289	2.43
