Uv/Vis Spectrum: Propane, 2-nitro-2-nitroso-
Formula: C3H6N2O3
CAS: 5275-46-7
Melting point: 75
Instrument: Beckman DU
Origin: INSTITUTE OF ENERGY PROBLEMS OF CHEMICAL PHYSICS, RAS
Wavelength (nm)	Logarithm epsilon
231	4.079
231.52	4.075
232.04	4.071
232.56	4.066
233.08	4.062
233.6	4.058
234.04	4.053
234.56	4.049
234.99	4.043
235.34	4.038
235.77	4.033
236.21	4.027
236.55	4.022
236.82	4.016
237.16	4.01
237.51	4.005
237.77	3.999
238.03	3.993
238.29	3.987
238.55	3.98
238.81	3.974
239.07	3.967
239.25	3.96
239.51	3.953
239.68	3.946
239.77	3.938
240.03	3.931
240.46	3.925
240.9	3.919
241.33	3.912
241.85	3.906
242.37	3.9
242.9	3.894
243.5	3.888
243.94	3.88
244.63	3.875
245.24	3.87
245.85	3.865
246.46	3.859
246.98	3.853
247.59	3.847
248.19	3.84
248.8	3.834
249.41	3.828
250.02	3.823
250.63	3.816
251.23	3.809
251.84	3.804
252.45	3.798
253.06	3.79
253.75	3.786
254.45	3.78
255.06	3.773
255.75	3.768
256.45	3.762
257.14	3.755
257.84	3.749
258.36	3.739
259.05	3.734
259.75	3.729
260.44	3.722
261.14	3.714
261.83	3.707
262.53	3.7
263.31	3.695
263.92	3.688
264.52	3.68
265.22	3.674
265.91	3.668
266.61	3.661
267.3	3.653
268	3.648
268.69	3.641
269.39	3.634
270.08	3.629
270.78	3.624
271.47	3.617
272.16	3.609
272.86	3.602
273.64	3.597
274.34	3.591
275.03	3.585
275.82	3.579
276.6	3.573
277.31	3.568
278.16	3.563
278.94	3.559
279.72	3.557
280.51	3.555
281.29	3.553
282.04	3.552
282.84	3.552
283.63	3.551
284.41	3.551
285.2	3.551
285.98	3.549
286.76	3.545
287.57	3.542
288.32	3.54
289.07	3.54
289.86	3.538
290.67	3.534
291.45	3.527
292.23	3.523
293.01	3.521
293.8	3.518
294.58	3.516
295.36	3.514
