Uv/Vis Spectrum: (R)-2-methyl-1-azetidinecarbonitrile
Formula: C5H8N2
CAS: 52730-19-5
Boiling point: 95-96/ 25 mm
Instrument: Specord UV-Vis
Origin: INSTITUTE OF ENERGY PROBLEMS OF CHEMICAL PHYSICS, RAS
Wavelength (nm)	Logarithm epsilon
196.092	2.998
197.092	2.961
198.092	2.935
199.092	2.917
200.092	2.904
201.092	2.894
202.092	2.884
203.092	2.874
204.092	2.862
205.092	2.846
206.092	2.824
207.092	2.796
208.092	2.761
209.092	2.718
210	2.674
211	2.605
212	2.545
213	2.493
214	2.447
215	2.405
216	2.367
217	2.331
218	2.295
218.939	2.258
219.939	2.219
220.939	2.181
221.939	2.144
222.939	2.108
223.939	2.074
224.939	2.04
225.939	2.008
226.939	1.977
227.939	1.946
228.939	1.917
229.939	1.889
230.939	1.862
232.032	1.832
233.032	1.808
234.032	1.787
235.032	1.768
236.032	1.75
237.032	1.733
238.032	1.716
