Uv/Vis Spectrum: 1-Methyl-2-isopropylbenzene
Formula: C10H14
CAS: 527-84-4
Boiling point: 178.1
Instrument: unknown
Origin: INSTITUTE OF ENERGY PROBLEMS OF CHEMICAL PHYSICS, RAS
Wavelength (nm)	Logarithm epsilon
226.62	1.893
226.66	1.893
226.83	1.838
227.05	1.765
227.26	1.704
227.47	1.662
227.69	1.62
227.91	1.575
228.11	1.537
228.33	1.504
228.54	1.461
228.76	1.417
228.92	1.383
229.11	1.355
229.37	1.327
229.61	1.303
229.87	1.281
230.21	1.255
230.56	1.23
230.77	1.216
231.03	1.2
231.23	1.189
231.57	1.173
231.96	1.16
232.27	1.158
232.66	1.161
233.11	1.173
233.48	1.19
233.88	1.216
234.19	1.244
234.56	1.282
234.9	1.31
235.23	1.337
235.59	1.369
235.93	1.399
236.27	1.421
236.61	1.448
236.91	1.48
237.25	1.504
237.59	1.531
237.89	1.553
238.23	1.573
238.53	1.589
238.88	1.611
239.22	1.633
239.56	1.65
239.9	1.67
240.24	1.685
240.55	1.702
240.88	1.718
241.22	1.732
241.57	1.749
241.91	1.762
242.21	1.778
242.55	1.793
242.85	1.807
243.15	1.822
243.44	1.835
243.74	1.848
244.04	1.861
244.34	1.876
244.68	1.888
244.98	1.903
245.28	1.914
245.58	1.927
245.92	1.938
246.22	1.949
246.52	1.959
246.78	1.971
247.03	1.982
247.33	1.994
247.59	2.007
247.84	2.019
248.1	2.03
248.31	2.043
248.53	2.055
248.78	2.066
249	2.077
249.21	2.088
249.47	2.098
249.77	2.107
250.02	2.115
250.28	2.124
250.58	2.132
250.88	2.139
251.13	2.147
251.43	2.153
251.73	2.16
251.99	2.169
252.28	2.176
252.58	2.183
252.88	2.191
253.15	2.199
253.35	2.207
253.57	2.216
253.78	2.225
253.98	2.233
254.16	2.241
254.38	2.25
254.59	2.257
254.8	2.264
255.06	2.271
255.32	2.278
255.66	2.283
256.02	2.286
256.38	2.286
256.77	2.285
257.15	2.286
257.54	2.286
257.92	2.288
258.26	2.292
258.52	2.299
258.78	2.305
258.99	2.311
259.16	2.319
259.37	2.326
259.54	2.332
259.72	2.339
259.93	2.346
260.1	2.353
260.31	2.359
260.7	2.361
261.08	2.361
261.38	2.366
261.64	2.371
261.85	2.377
262.11	2.382
262.32	2.388
262.58	2.393
262.83	2.398
263.18	2.4
263.52	2.399
263.73	2.396
263.86	2.395
264.03	2.389
264.2	2.383
264.37	2.373
264.54	2.362
264.71	2.35
264.88	2.334
265.05	2.322
265.21	2.312
265.4	2.301
265.57	2.295
265.74	2.289
265.89	2.286
266.08	2.283
266.25	2.283
266.42	2.284
266.59	2.287
266.76	2.288
266.93	2.29
267.1	2.291
267.27	2.289
267.44	2.284
267.62	2.275
267.79	2.264
267.96	2.251
268.13	2.236
268.3	2.221
268.47	2.21
268.64	2.197
268.81	2.182
268.98	2.172
269.15	2.166
269.23	2.166
269.32	2.166
269.49	2.176
269.67	2.192
269.84	2.214
270.01	2.231
270.18	2.255
270.37	2.281
270.52	2.299
270.72	2.317
270.86	2.328
270.94	2.331
271.03	2.33
271.21	2.319
271.37	2.304
271.54	2.285
271.72	2.262
271.89	2.225
272.06	2.194
272.23	2.151
272.4	2.115
272.57	2.079
272.74	2.042
272.91	2.003
273.08	1.971
273.25	1.932
273.42	1.888
273.59	1.854
273.77	1.816
273.94	1.778
274.11	1.746
274.28	1.715
274.45	1.674
274.62	1.641
274.79	1.602
274.96	1.568
275.13	1.526
275.3	1.498
275.47	1.467
275.64	1.428
275.81	1.392
275.99	1.353
276.16	1.319
276.33	1.282
276.5	1.241
276.75	1.187
276.84	1.16
277.01	1.12
