Uv/Vis Spectrum: Benzene, 1,2,3,5-tetramethyl-
Formula: C10H14
CAS: 527-53-7
Melting point: - 23.7
Boiling point: 198
Instrument: unknown
Origin: INSTITUTE OF ENERGY PROBLEMS OF CHEMICAL PHYSICS, RAS
Wavelength (nm)	Logarithm epsilon
235.02	1.805
235.24	1.781
235.45	1.759
235.66	1.736
235.91	1.712
236.12	1.682
236.33	1.655
236.59	1.625
236.8	1.593
237.05	1.564
237.35	1.533
237.68	1.505
238.01	1.492
238.4	1.481
238.78	1.481
239.16	1.481
239.6	1.485
239.92	1.493
240.3	1.508
240.64	1.527
241.02	1.544
241.36	1.559
241.73	1.578
242.03	1.593
242.39	1.609
242.75	1.625
243.09	1.642
243.43	1.659
243.72	1.678
244.06	1.694
244.4	1.708
244.74	1.719
245.07	1.736
245.41	1.753
245.71	1.769
246.05	1.781
246.34	1.796
246.68	1.808
247.02	1.822
247.35	1.836
247.69	1.846
248.03	1.857
248.33	1.869
248.66	1.882
248.96	1.894
249.25	1.905
249.59	1.916
249.89	1.927
250.23	1.936
250.52	1.947
250.82	1.957
251.11	1.969
251.45	1.979
251.75	1.988
252.04	2
252.29	2.011
252.55	2.021
252.8	2.032
253.1	2.042
253.35	2.052
253.6	2.061
253.81	2.072
254.11	2.082
254.36	2.092
254.57	2.103
254.83	2.113
255.04	2.124
255.29	2.133
255.5	2.144
255.76	2.152
255.97	2.161
256.14	2.171
256.39	2.18
256.64	2.188
256.85	2.196
257.11	2.205
257.32	2.213
257.57	2.22
257.83	2.228
258.08	2.236
258.33	2.242
258.59	2.248
258.88	2.254
259.18	2.259
259.43	2.265
259.73	2.27
260.06	2.274
260.44	2.276
260.78	2.279
261.08	2.284
261.41	2.288
261.71	2.294
262.01	2.299
262.22	2.306
262.43	2.312
262.64	2.318
262.85	2.325
263.06	2.332
263.31	2.338
263.53	2.345
263.78	2.35
264.03	2.355
264.33	2.359
264.58	2.364
264.88	2.368
265.17	2.372
265.43	2.376
265.72	2.38
265.97	2.385
266.23	2.39
266.4	2.396
266.65	2.401
266.78	2.407
267.03	2.412
267.24	2.418
267.45	2.423
267.71	2.427
267.96	2.432
268.3	2.434
268.63	2.431
268.85	2.426
268.97	2.42
269.18	2.415
269.31	2.409
269.48	2.403
269.61	2.397
269.73	2.392
269.9	2.386
270.03	2.379
270.15	2.372
270.28	2.366
270.41	2.359
270.5	2.353
270.61	2.347
270.74	2.34
270.86	2.334
270.99	2.327
271.13	2.318
271.34	2.309
271.51	2.306
271.69	2.308
271.84	2.312
272.01	2.318
272.18	2.324
272.35	2.328
272.49	2.334
272.67	2.339
272.85	2.345
273.03	2.35
273.19	2.355
273.36	2.357
273.53	2.357
273.7	2.354
273.87	2.347
274.04	2.341
274.2	2.333
274.36	2.326
274.5	2.317
274.71	2.306
274.86	2.296
275.05	2.282
275.22	2.278
275.39	2.274
275.56	2.275
275.73	2.278
275.9	2.283
276.07	2.289
276.24	2.297
276.4	2.302
276.57	2.309
276.74	2.312
276.91	2.313
277.07	2.313
277.25	2.311
277.42	2.309
277.59	2.302
277.76	2.289
277.92	2.275
278.09	2.262
278.26	2.244
278.43	2.223
278.6	2.205
278.77	2.179
278.94	2.157
279.11	2.12
279.28	2.089
279.44	2.057
279.61	2.021
279.78	1.983
279.95	1.942
280.12	1.91
280.29	1.886
280.46	1.838
280.63	1.799
280.8	1.769
280.96	1.723
281.13	1.682
281.3	1.638
281.47	1.607
281.64	1.559
281.81	1.511
281.98	1.475
282.15	1.423
282.32	1.386
282.48	1.355
282.65	1.312
282.82	1.265
282.99	1.234
283.16	1.2
