Uv/Vis Spectrum: 1-bromo-1,2-dihydro-2-oxo-1,3-azulenedicarboxylic acid, diethyl ester
Formula: C16H15BrO5
CAS: 52802-63-8
Melting point: 128-129
Instrument: unknown
Origin: INSTITUTE OF ENERGY PROBLEMS OF CHEMICAL PHYSICS, RAS
Wavelength (nm)	Logarithm epsilon
214.462	4.342
215.462	4.345
216.462	4.35
217.462	4.356
218.462	4.362
219.462	4.367
220.462	4.372
221.462	4.375
222.462	4.378
223.462	4.379
224.462	4.379
225.462	4.378
226.462	4.375
227.462	4.371
228.462	4.366
229.462	4.36
230.462	4.353
231.462	4.346
232.462	4.339
233.462	4.331
234.462	4.323
235.462	4.315
236.462	4.307
237.462	4.299
238.462	4.292
239.462	4.286
240.462	4.279
241.462	4.274
242.462	4.269
243.462	4.265
244.462	4.262
245.462	4.259
246.462	4.256
247.462	4.254
248.462	4.253
249.462	4.252
250.462	4.251
251.462	4.25
252.462	4.25
253.462	4.249
254.462	4.248
255.462	4.247
256.462	4.246
257.462	4.244
258.462	4.242
259.462	4.239
260.462	4.235
261.462	4.231
262.462	4.226
263.462	4.22
264.462	4.214
265.462	4.206
266.462	4.198
267.462	4.189
268.462	4.178
269.462	4.166
270.462	4.153
271.462	4.139
271.972	4.128
272.972	4.112
273.972	4.095
274.972	4.077
275.972	4.058
276.972	4.037
277.972	4.016
278.972	3.994
279.972	3.972
280.972	3.95
281.972	3.927
282.972	3.905
283.972	3.882
284.972	3.86
285.972	3.838
286.972	3.816
287.972	3.795
288.972	3.774
289.972	3.753
290.972	3.733
291.972	3.713
292.972	3.693
293.972	3.674
294.886	3.658
295.886	3.639
296.886	3.62
297.886	3.603
298.886	3.587
299.886	3.572
300.886	3.559
301.886	3.546
302.886	3.536
303.886	3.526
304.886	3.518
305.886	3.511
306.886	3.506
307.886	3.501
308.886	3.498
309.886	3.495
310.886	3.493
311.886	3.493
312.886	3.493
313.886	3.493
314.886	3.495
315.886	3.497
316.886	3.5
317.886	3.503
318.886	3.508
319.886	3.513
320.886	3.519
321.886	3.525
322.886	3.533
323.886	3.541
324.886	3.55
325.886	3.56
326.886	3.571
327.886	3.583
328.886	3.595
329.886	3.608
330.886	3.622
331.886	3.636
332.848	3.646
333.62	3.656
334.347	3.667
335.347	3.68
336.347	3.694
337.347	3.709
338.347	3.723
339.347	3.738
340.347	3.754
341.347	3.769
342.347	3.785
343.347	3.801
344.347	3.818
345.347	3.834
346.347	3.851
347.347	3.867
348.347	3.884
349.347	3.901
350.347	3.917
351.347	3.934
352.347	3.95
353.347	3.967
354.347	3.983
355.347	3.999
356.347	4.014
357.347	4.029
358.347	4.044
359.347	4.059
360.347	4.073
361.347	4.087
362.347	4.101
363.347	4.114
364.347	4.126
365.347	4.139
366.347	4.151
367.347	4.163
368.347	4.174
369.347	4.186
370.347	4.197
371.347	4.209
371.809	4.214
372.809	4.228
373.809	4.238
374.809	4.245
375.809	4.251
376.809	4.254
377.809	4.257
378.809	4.258
379.809	4.259
380.809	4.26
381.809	4.262
382.809	4.263
383.809	4.266
384.809	4.269
385.809	4.272
386.809	4.276
387.809	4.281
388.809	4.286
389.809	4.292
390.809	4.297
391.809	4.302
392.809	4.307
393.809	4.31
394.809	4.312
395.809	4.312
396.809	4.309
397.809	4.304
398.809	4.294
399.632	4.284
400.632	4.261
401.632	4.235
402.632	4.208
403.632	4.18
404.632	4.15
405.632	4.12
406.632	4.09
407.632	4.06
408.632	4.03
409.632	4
410.632	3.971
411.632	3.943
412.632	3.916
413.632	3.89
414.632	3.865
415.632	3.841
416.632	3.819
417.632	3.797
418.632	3.778
419.632	3.759
420.221	3.748
420.909	3.736
421.909	3.722
422.909	3.709
423.909	3.696
424.909	3.685
425.909	3.674
426.909	3.664
427.909	3.654
428.909	3.645
429.909	3.637
430.909	3.629
431.909	3.621
432.909	3.614
433.909	3.606
434.909	3.6
435.909	3.593
436.909	3.586
437.909	3.58
438.909	3.573
439.909	3.567
440.909	3.561
441.909	3.554
442.909	3.548
443.909	3.542
444.909	3.536
445.909	3.53
446.909	3.523
447.909	3.517
448.909	3.511
449.909	3.505
450.909	3.499
451.909	3.493
452.909	3.487
453.909	3.481
454.909	3.476
455.909	3.47
456.909	3.464
457.909	3.458
458.909	3.453
459.909	3.447
460.909	3.442
461.909	3.436
462.909	3.431
463.909	3.426
464.909	3.42
465.909	3.415
466.909	3.41
467.909	3.404
468.909	3.399
469.909	3.393
470.909	3.388
471.909	3.382
472.909	3.376
