Uv/Vis Spectrum: alpha-(2,3-dihydro-3-oxo-1H-isoindol-1-ylidene)-1H-benzimidazole-2-acetonitrile
Formula: C17H10N4O
CAS: 52821-73-5
Instrument: unknown
Origin: INSTITUTE OF ENERGY PROBLEMS OF CHEMICAL PHYSICS, RAS
Wavelength (nm)	Logarithm epsilon
331.378	3.84
333.378	3.854
335.378	3.87
337.378	3.887
339.378	3.907
341.378	3.927
343.378	3.947
345.378	3.968
347.378	3.988
349.378	4.009
351.378	4.029
353.378	4.048
355.378	4.068
357.378	4.087
359.378	4.105
361.378	4.124
363.378	4.141
365.378	4.159
367.378	4.176
369.378	4.192
371.378	4.208
373.378	4.223
375.378	4.237
377.378	4.249
379.378	4.259
381.378	4.267
383.378	4.271
385.254	4.274
386.754	4.276
388.254	4.279
389.754	4.283
391.254	4.287
392.754	4.29
394.254	4.294
395.754	4.297
397.254	4.299
398.754	4.3
400.254	4.3
401.754	4.298
403.254	4.294
404.754	4.288
406.254	4.28
407.754	4.27
409.254	4.258
410.754	4.245
410.91	4.245
412.41	4.23
413.91	4.217
415.41	4.204
416.91	4.193
418.41	4.183
419.91	4.173
421.41	4.163
422.91	4.153
424.41	4.143
425.91	4.131
427.41	4.117
428.91	4.102
430.41	4.085
431.91	4.065
433.41	4.042
434.91	4.016
436.098	3.995
437.598	3.962
439.098	3.931
440.598	3.898
442.098	3.863
443.598	3.826
445.098	3.787
446.598	3.745
448.098	3.701
449.598	3.657
451.098	3.615
452.598	3.578
452.9	3.57
454.4	3.533
455.9	3.497
457.4	3.463
458.9	3.429
460.4	3.397
461.9	3.364
463.4	3.331
464.9	3.298
466.4	3.265
467.9	3.231
469.4	3.196
470.9	3.162
472.4	3.129
473.9	3.097
