Uv/Vis Spectrum: 1,2,7-trimethyl-4-nitro-1H-indole-3-carboxylic acid, ethyl ester
Formula: C14H16N2O4
CAS: 52916-05-9
Melting point: 186-187
Instrument: Cary 15
Origin: INSTITUTE OF ENERGY PROBLEMS OF CHEMICAL PHYSICS, RAS
Wavelength (nm)	Logarithm epsilon
243.655	4.136
245.155	4.124
246.655	4.115
248.155	4.107
249.655	4.1
251.155	4.093
252.655	4.087
254.155	4.08
255.655	4.072
257.155	4.063
258.655	4.052
260.155	4.039
261.655	4.025
263.155	4.008
264.655	3.989
266.155	3.968
267.655	3.945
269.155	3.92
270.655	3.894
272.155	3.866
273.655	3.836
275.155	3.806
276.655	3.776
278.155	3.745
279.655	3.714
281.155	3.682
282.655	3.651
284.155	3.619
285.655	3.585
287.183	3.55
288.479	3.517
289.731	3.468
291.683	3.415
293.183	3.381
294.683	3.371
296.183	3.381
297.865	3.398
299.42	3.417
300.805	3.429
302.305	3.44
303.805	3.451
305.305	3.463
306.805	3.475
308.305	3.487
309.805	3.498
311.305	3.509
312.805	3.519
314.305	3.528
315.805	3.536
317.305	3.544
318.805	3.55
320.305	3.556
321.805	3.562
323.305	3.567
324.805	3.572
326.305	3.577
327.805	3.581
329.305	3.586
330.805	3.591
332.305	3.596
333.805	3.601
335.305	3.606
336.805	3.612
338.305	3.618
339.805	3.623
341.305	3.629
342.805	3.634
345.037	3.641
346.537	3.644
348.037	3.646
349.537	3.649
351.037	3.652
352.537	3.654
354.037	3.657
355.537	3.659
357.037	3.661
358.537	3.663
360.037	3.664
361.537	3.665
363.037	3.666
364.537	3.666
366.037	3.665
367.537	3.664
369.037	3.662
370.537	3.66
372.037	3.657
373.537	3.653
375.037	3.648
376.537	3.643
378.037	3.637
379.537	3.63
381.037	3.622
382.537	3.613
384.433	3.601
385.933	3.586
387.433	3.573
388.933	3.56
390.433	3.545
391.933	3.528
393.433	3.51
394.933	3.491
396.433	3.47
397.933	3.449
399.433	3.429
400.933	3.409
402.433	3.391
403.933	3.374
405.37	3.359
406.87	3.344
408.37	3.327
409.87	3.306
411.37	3.28
412.87	3.247
