Uv/Vis Spectrum: 9-Fluoroanthracene
Formula: C14H9F
CAS: 529-85-1
Melting point: 102-103
Instrument: unknown
Origin: INSTITUTE OF ENERGY PROBLEMS OF CHEMICAL PHYSICS, RAS
Wavelength (nm)	Logarithm epsilon
315.55	2.845
316.07	2.876
316.42	2.906
316.76	2.937
317.28	2.967
317.8	2.998
318.32	3.028
318.84	3.059
319.35	3.086
319.87	3.117
320.74	3.144
321.43	3.171
321.95	3.202
322.64	3.229
323.33	3.256
323.85	3.283
324.71	3.31
325.4	3.338
326.27	3.361
327.3	3.382
328.68	3.395
330.07	3.385
331.1	3.365
332.14	3.344
333.35	3.324
334.91	3.321
336.12	3.341
336.98	3.368
337.5	3.399
338.02	3.426
338.88	3.453
339.4	3.484
339.74	3.514
340.61	3.541
341.3	3.569
341.99	3.596
342.68	3.623
343.37	3.65
344.06	3.677
344.58	3.704
345.96	3.718
347	3.694
347.52	3.667
348.04	3.64
348.56	3.609
348.9	3.579
349.59	3.552
349.94	3.521
350.63	3.494
351.15	3.467
352.36	3.446
353.57	3.467
354.43	3.494
355.47	3.518
355.99	3.548
356.68	3.575
357.2	3.606
357.54	3.637
358.41	3.664
358.58	3.694
359.1	3.725
359.62	3.755
360.13	3.783
360.65	3.81
361.34	3.837
362.04	3.864
363.07	3.888
364.45	3.871
364.97	3.84
365.49	3.813
366.01	3.783
366.36	3.752
366.53	3.721
366.7	3.691
366.87	3.66
367.22	3.63
367.56	3.599
367.91	3.569
368.08	3.538
368.26	3.507
368.43	3.477
368.77	3.446
369.12	3.416
369.47	3.385
370.33	3.358
371.19	3.331
372.58	3.344
373.27	3.372
373.79	3.402
373.96	3.433
374.13	3.463
374.3	3.494
374.82	3.524
375.17	3.555
375.51	3.586
375.69	3.616
376.55	3.643
377.41	3.67
378.28	3.698
378.8	3.728
379.32	3.759
380.18	3.783
381.39	3.803
382.6	3.82
384.15	3.813
386.05	3.711
386.23	3.701
386.4	3.691
386.75	3.657
387.09	3.613
387.44	3.47
387.78	3.344
388.13	3.293
388.47	3.256
388.82	3.219
389.16	3.168
389.51	3.12
389.86	3.083
390.2	3.018
390.55	2.977
390.89	2.92
391.24	2.896
391.58	2.865
391.93	2.835
