Uv/Vis Spectrum: L-Cysteine
Formula: C3H7NO2S
CAS: 52-90-4
Instrument: Unicam SP 500
Origin: INSTITUTE OF ENERGY PROBLEMS OF CHEMICAL PHYSICS, RAS
Wavelength (nm)	Logarithm epsilon
186.09	3.419
186.17	3.419
186.24	3.419
186.32	3.417
186.39	3.417
186.47	3.415
186.54	3.415
186.61	3.412
186.69	3.412
186.76	3.412
186.84	3.41
186.91	3.41
186.99	3.408
187.06	3.408
187.14	3.408
187.21	3.406
187.44	3.393
187.89	3.387
188.35	3.38
188.8	3.372
189.26	3.368
189.72	3.361
190.19	3.355
190.65	3.351
191.12	3.344
191.59	3.34
192.06	3.331
192.54	3.327
193.02	3.319
193.5	3.31
193.98	3.304
194.46	3.295
194.95	3.287
195.44	3.276
195.93	3.265
196.43	3.248
196.92	3.236
197.42	3.214
197.93	3.193
198.43	3.172
198.94	3.148
199.45	3.123
199.96	3.097
200.48	3.07
200.99	3.038
201.51	3.01
202.04	2.982
202.56	2.955
203.09	2.925
203.62	2.895
204.16	2.865
204.69	2.835
205.23	2.803
205.78	2.774
206.32	2.744
206.87	2.72
207.42	2.693
207.98	2.659
208.53	2.633
209.09	2.61
209.66	2.584
210.22	2.561
210.79	2.535
211.36	2.512
211.94	2.491
212.52	2.469
213.1	2.448
213.69	2.422
214.27	2.401
214.87	2.38
215.46	2.361
216.06	2.344
216.66	2.322
217.27	2.299
217.87	2.282
218.49	2.265
219.1	2.244
219.72	2.222
220.34	2.201
220.97	2.175
221.6	2.154
222.23	2.131
222.87	2.107
223.51	2.086
224.15	2.063
224.8	2.033
225.45	2.003
226.1	1.982
226.76	1.954
227.42	1.928
228.09	1.897
228.76	1.869
229.44	1.841
230.11	1.811
230.8	1.777
231.48	1.743
232.17	1.711
232.87	1.681
233.57	1.641
234.27	1.607
234.98	1.573
235.69	1.532
236.41	1.498
237.13	1.464
237.85	1.432
238.58	1.409
239.31	1.386
240.05	1.354
240.79	1.313
241.54	1.268
242.29	1.228
243.05	1.19
243.81	1.139
244.58	1.098
245.35	1.056
246.13	1.004
246.91	0.962
247.69	0.907
248.48	0.862
249.28	0.815
250.08	0.757
250.89	0.715
251.7	0.651
252.51	0.598
