Uv/Vis Spectrum: Benzonitrile, 2-methyl-
Formula: C8H7N
CAS: 529-19-1
Melting point: - 13.5
Boiling point: 205
Instrument: unknown
Origin: INSTITUTE OF ENERGY PROBLEMS OF CHEMICAL PHYSICS, RAS
Wavelength (nm)	Logarithm epsilon
220.17	2.929
220.34	2.933
220.51	2.933
220.68	2.938
220.85	2.942
221.02	2.942
221.19	2.946
221.36	2.946
221.53	2.95
221.7	2.954
221.87	2.954
222.21	2.959
222.89	2.971
223.57	2.984
224.25	2.992
224.93	3.001
225.6	3.005
226.28	3.009
226.96	3.009
227.64	3.009
228.32	3.009
229	3.001
229.68	2.996
230.36	2.984
231.04	2.98
231.72	2.963
232.4	2.95
233.08	2.929
233.76	2.904
234.44	2.875
235.12	2.82
235.51	2.72
235.79	2.568
235.97	2.411
236.2	2.248
236.39	2.131
236.67	2.01
236.9	1.958
237.15	1.914
237.39	1.871
237.64	1.816
237.83	1.763
238.17	1.662
238.51	1.544
238.85	1.402
239.19	1.204
239.53	1.028
239.87	0.953
240.21	0.927
240.55	0.915
240.89	0.911
241.23	0.906
241.57	0.906
241.91	0.906
242.25	0.911
242.59	0.915
242.93	0.919
243.27	0.927
244.97	0.974
245.64	1.007
246.66	1.037
247.34	1.07
248.19	1.1
248.87	1.133
249.89	1.162
250.4	1.196
251.42	1.225
252.1	1.259
252.95	1.293
253.8	1.322
254.65	1.356
255.49	1.385
256.17	1.418
257.02	1.448
257.87	1.481
258.89	1.511
259.57	1.544
260.59	1.574
261.27	1.607
262.12	1.637
262.97	1.67
263.82	1.704
264.84	1.733
265.68	1.767
266.7	1.796
267.55	1.821
267.72	1.826
267.89	1.83
268.06	1.838
268.23	1.842
268.4	1.847
268.57	1.851
268.74	1.855
268.91	1.859
269.08	1.863
269.25	1.868
269.42	1.868
269.59	1.868
269.76	1.868
269.93	1.868
270.1	1.868
270.27	1.863
270.44	1.863
270.61	1.859
270.78	1.855
270.95	1.855
271.12	1.855
271.29	1.855
271.46	1.855
271.63	1.859
271.8	1.863
271.97	1.868
272.14	1.872
272.31	1.888
272.48	1.897
272.65	1.93
272.82	1.96
272.99	1.981
273.16	2.014
273.33	2.035
273.5	2.048
273.67	2.048
273.84	2.048
274.01	2.04
274.18	2.035
274.35	2.031
274.52	2.027
274.69	2.019
274.86	2.014
275.03	2.01
275.2	2.006
275.37	2.002
275.54	1.998
275.7	1.993
275.87	1.989
276.04	1.981
276.21	1.977
276.38	1.972
276.55	1.972
276.72	1.972
276.89	1.968
277.06	1.968
277.23	1.968
277.4	1.968
277.57	1.972
277.74	1.972
277.91	1.977
278.08	1.981
278.25	1.985
278.42	1.985
278.59	1.981
278.76	1.956
278.93	1.926
279.1	1.893
279.27	1.868
279.44	1.847
279.61	1.838
279.78	1.834
279.95	1.834
280.12	1.834
280.29	1.834
280.46	1.838
280.62	1.844
280.8	1.855
280.97	1.868
281.14	1.888
281.31	1.909
281.5	1.934
281.68	1.955
281.85	1.981
281.97	2.002
282.16	2.035
282.33	2.077
282.47	2.116
282.67	2.158
282.84	2.178
283.01	2.178
283.17	2.165
283.38	2.13
283.53	2.097
283.7	2.057
283.91	2.012
284.08	1.969
284.29	1.922
284.5	1.87
284.67	1.828
284.91	1.769
285.26	1.698
285.47	1.651
285.72	1.586
285.89	1.523
286.06	1.452
286.23	1.385
286.4	1.301
286.57	1.221
286.74	1.137
286.91	1.058
287.08	1.007
287.25	0.995
287.42	0.902
287.59	0.865
287.76	0.823
287.93	0.793
288.1	0.751
288.27	0.722
288.44	0.688
288.61	0.667
288.78	0.642
288.95	0.617
289.12	0.596
289.29	0.567
289.46	0.554
289.63	0.533
289.8	0.512
289.97	0.487
290.14	0.462
290.31	0.449
290.48	0.432
290.65	0.415
290.82	0.394
290.99	0.374
291.16	0.357
291.33	0.348
291.5	0.332
291.67	0.315
291.84	0.298
292.01	0.29
292.18	0.269
292.35	0.252
292.52	0.248
292.69	0.231
292.86	0.222
293.03	0.21
293.2	0.201
293.37	0.189
293.54	0.18
293.71	0.164
293.88	0.159
294.05	0.147
294.22	0.138
294.39	0.126
294.56	0.122
294.73	0.109
294.9	0.105
295.07	0.097
295.24	0.084
295.41	0.08
295.58	0.076
295.75	0.063
295.91	0.059
296.08	0.046
296.25	0.042
296.42	0.038
296.59	0.025
296.76	0.021
