Uv/Vis Spectrum: 1-Naphthalenol, 5,6,7,8-tetrahydro-
Formula: C10H12O
CAS: 529-35-1
Melting point: 70
Boiling point: 143/ 11 mm
Instrument: unknown
Origin: INSTITUTE OF ENERGY PROBLEMS OF CHEMICAL PHYSICS, RAS
Wavelength (nm)	Logarithm epsilon
220.67	3.872
220.84	3.868
221.01	3.868
221.18	3.864
221.35	3.86
221.52	3.855
221.69	3.851
221.85	3.847
222.02	3.843
222.19	3.839
222.36	3.835
222.53	3.831
222.7	3.827
222.87	3.822
223.04	3.818
223.71	3.793
224.7	3.752
225.73	3.703
226.69	3.642
227.72	3.568
228.77	3.488
229.78	3.405
230.8	3.324
231.85	3.245
233.09	3.151
233.83	3.087
234.84	2.996
235.85	2.893
236.86	2.802
237.87	2.711
238.88	2.637
239.9	2.575
240.91	2.525
241.92	2.497
242.93	2.476
243.9	2.464
244.95	2.459
245.97	2.468
246.98	2.48
247.99	2.497
249.05	2.516
250.01	2.538
251.03	2.563
252.04	2.587
253.04	2.613
254.11	2.643
255.07	2.67
256.11	2.7
257.14	2.733
258.11	2.761
259.12	2.79
260.22	2.821
261.14	2.848
262.15	2.877
263.17	2.901
264.18	2.93
265.19	2.959
266.2	2.984
266.6	2.998
267.08	3.015
267.38	3.025
267.55	3.029
267.72	3.033
267.89	3.038
268.06	3.042
268.39	3.05
268.72	3.057
269.11	3.067
269.42	3.078
269.74	3.087
270.08	3.095
270.42	3.104
270.75	3.108
271.09	3.112
271.43	3.108
271.76	3.095
272.1	3.079
272.44	3.075
272.78	3.071
273.11	3.071
273.45	3.075
273.79	3.079
274.13	3.083
274.46	3.083
274.8	3.075
275.14	3.05
275.47	3.042
275.81	3.038
276.15	3.038
276.49	3.042
276.82	3.046
277.16	3.054
277.5	3.062
277.83	3.071
278.2	3.087
278.51	3.104
278.68	3.117
278.85	3.128
279.01	3.131
279.18	3.124
279.38	3.114
279.63	3.098
279.86	3.079
280.02	3.059
280.22	3.04
280.87	2.976
281.07	2.959
281.54	2.91
281.88	2.872
282.22	2.835
282.56	2.794
282.89	2.757
283.23	2.72
283.52	2.685
283.9	2.637
284.24	2.596
284.58	2.567
284.92	2.525
285.25	2.484
285.59	2.459
285.93	2.418
286.27	2.377
286.6	2.331
286.94	2.307
287.28	2.278
287.61	2.253
287.95	2.232
289.3	2.162
289.97	2.129
290.82	2.097
291.79	2.068
292.84	2.038
294.02	2.017
295.2	1.993
296.55	1.972
297.9	1.951
299.25	1.931
300.6	1.91
301.95	1.898
303.3	1.881
304.64	1.865
305.99	1.848
307.34	1.827
308.86	1.815
310.21	1.798
