Uv/Vis Spectrum: 1,2,7-trimethyl-6-nitro-1H-indole-3-carboxylic acid, ethyl ester
Formula: C14H16N2O4
CAS: 52916-06-0
Melting point: 138-141
Instrument: Cary 15
Origin: INSTITUTE OF ENERGY PROBLEMS OF CHEMICAL PHYSICS, RAS
Wavelength (nm)	Logarithm epsilon
231.437	4.413
232.437	4.387
233.437	4.317
234.437	4.236
235.437	4.165
236.427	4.112
237.427	4.085
238.427	4.062
239.427	4.044
240.427	4.029
241.427	4.018
242.427	4.009
243.427	4.003
244.427	3.999
245.427	3.997
246.427	3.998
247.427	4.001
248.427	4.007
249.427	4.016
250.427	4.026
251.668	4.044
252.668	4.061
253.668	4.081
254.668	4.103
255.668	4.125
256.668	4.148
257.637	4.169
258.668	4.187
259.668	4.204
260.668	4.221
261.668	4.239
262.378	4.258
263.378	4.277
264.378	4.294
265.378	4.309
266.378	4.323
267.378	4.335
268.378	4.345
269.378	4.353
270.378	4.36
271.378	4.363
272.378	4.364
273.378	4.362
274.378	4.357
275.378	4.349
276.378	4.339
277.378	4.327
278.378	4.314
279.378	4.302
279.595	4.301
280.595	4.288
281.595	4.276
282.595	4.264
283.595	4.25
284.595	4.233
285.595	4.212
286.595	4.186
287.595	4.156
288.595	4.12
289.595	4.081
290.595	4.038
291.595	3.992
292.595	3.945
293.595	3.899
294.595	3.855
295.595	3.817
297.793	3.761
297.811	3.757
298.811	3.747
299.811	3.738
300.811	3.729
301.811	3.722
302.811	3.716
303.811	3.711
304.811	3.707
305.811	3.704
306.811	3.702
307.811	3.701
308.811	3.7
309.811	3.701
310.811	3.702
311.811	3.704
312.811	3.706
313.811	3.708
314.811	3.711
315.811	3.713
316.811	3.716
317.811	3.719
318.811	3.722
319.811	3.725
320.811	3.727
321.811	3.73
322.811	3.732
323.811	3.734
324.811	3.737
325.811	3.739
326.811	3.741
327.811	3.743
328.811	3.745
329.811	3.748
330.811	3.75
331.811	3.753
332.811	3.756
333.811	3.759
334.811	3.763
335.811	3.767
336.811	3.771
337.811	3.775
338.811	3.779
339.811	3.782
339.981	3.783
340.981	3.785
341.981	3.787
342.981	3.79
343.981	3.793
344.981	3.795
345.981	3.798
346.981	3.8
347.981	3.803
348.981	3.804
349.981	3.806
350.981	3.808
351.981	3.809
352.981	3.811
353.981	3.812
354.981	3.813
355.981	3.814
356.981	3.815
357.981	3.816
358.981	3.818
359.981	3.819
360.981	3.82
361.981	3.821
362.981	3.822
363.981	3.822
364.981	3.823
365.981	3.823
366.981	3.822
367.981	3.821
368.981	3.819
369.981	3.817
370.672	3.815
371.672	3.81
372.672	3.803
373.672	3.796
374.672	3.788
375.672	3.78
376.672	3.771
377.672	3.762
378.672	3.753
379.672	3.744
380.672	3.734
381.672	3.724
382.672	3.713
383.672	3.703
384.672	3.691
385.672	3.679
386.672	3.666
387.672	3.653
388.139	3.647
