Uv/Vis Spectrum: 1,4-bis(methylsulfonyl)naphthalene
Formula: C12H12O6
CAS: 52959-38-3
Melting point: 206-208
Instrument: SF-4
Origin: INSTITUTE OF ENERGY PROBLEMS OF CHEMICAL PHYSICS, RAS
Wavelength (nm)	Logarithm epsilon
220.306	4.328
221.306	4.307
222.306	4.292
223.306	4.282
224.306	4.278
225.306	4.28
226.306	4.287
227.306	4.298
228.306	4.314
229.306	4.332
230.306	4.354
231.306	4.377
232.306	4.4
233.306	4.424
234.306	4.447
235.306	4.469
236.306	4.487
237.306	4.501
238.306	4.51
239.306	4.511
240.306	4.502
241.306	4.48
242.306	4.442
243.306	4.382
244.306	4.295
245.306	4.175
246.306	4.012
247.306	3.796
248.306	3.514
248.311	3.517
249.311	3.206
250.311	2.994
251.311	2.859
252.311	2.781
253.311	2.743
254.311	2.733
255.311	2.74
256.311	2.758
257.311	2.781
258.311	2.806
259.311	2.83
260.311	2.854
261.311	2.877
262.311	2.901
263.311	2.926
264.311	2.953
265.311	2.982
266.311	3.013
266.397	3.001
267.397	3.035
268.397	3.068
269.397	3.102
270.397	3.134
271.397	3.167
272.397	3.199
273.397	3.231
274.397	3.262
275.397	3.292
276.397	3.322
277.397	3.351
278.397	3.379
279.397	3.407
280.397	3.434
281.397	3.459
282.397	3.484
283.397	3.508
284.397	3.53
285.397	3.552
286.397	3.572
287.397	3.591
288.397	3.609
289.397	3.625
290.397	3.64
291.397	3.654
292.397	3.666
293.397	3.676
294.397	3.685
295.397	3.692
296.397	3.697
297.397	3.701
298.397	3.703
299.397	3.702
300.112	3.708
300.979	3.713
302.979	3.713
304.979	3.718
306.979	3.723
308.979	3.723
310.979	3.715
312.979	3.699
314.979	3.675
316.979	3.645
318.979	3.612
320.979	3.575
322.979	3.537
324.979	3.497
326.979	3.454
328.979	3.405
330.979	3.343
332.979	3.259
334.979	3.141
336.979	2.972
338.54	2.794
339.54	2.671
340.54	2.543
341.54	2.413
342.54	2.285
343.54	2.162
