Uv/Vis Spectrum: 1(2H)-Naphthalenone, 3,4-dihydro-
Formula: C10H10O
CAS: 529-34-0
Melting point: 8
Boiling point: 115(6)
Instrument: n.i.g.
Origin: INSTITUTE OF ENERGY PROBLEMS OF CHEMICAL PHYSICS, RAS
Wavelength (nm)	Logarithm epsilon
210	4.10998
211	4.09
212	4.07
213	4.04
214	4.01
215	3.94
216	3.85
217	3.73
218	3.64
219	3.57
220	3.52
221	3.47
222	3.45
223	3.45
224	3.45
225	3.47
226	3.5
227	3.52
228	3.55
229	3.58
230	3.62
231	3.67
232	3.7
233	3.74
234	3.78
235	3.81
236	3.85
237	3.88
238	3.9
239	3.93
240	3.96
241	3.98
242	4
243	4.02
244	4.04
245	4.05
246	4.06
247	4.06
248	4.06
249	4.06
250	4.06002
251	4.05
252	4.04
253	4.03
254	4.01
255	3.99
256	3.96
257	3.94
258	3.89
259	3.83
260	3.78
261	3.73
262	3.66
263	3.59
264	3.49
265	3.42
266	3.34
267	3.26
268	3.19
269	3.13
270	3.08001
271	3.04
272	3.02
273	3.01
274	3.01
275	3.02
276	3.04
277	3.05
278	3.07
279	3.09
280	3.10998
281	3.13
282	3.15
283	3.16
284	3.19
285	3.2
286	3.22
287	3.23
288	3.24
289	3.26
290	3.26
291	3.26
292	3.26
293	3.26
294	3.26
295	3.26
296	3.25
297	3.25
298	3.24
299	3.22
300	3.19
301	3.16
302	3.14
303	3.11
304	3.06
305	3.01
306	2.96
307	2.9
308	2.83
309	2.77
