Uv/Vis Spectrum: 2-(hydroxyazo)benzothiazole, sodium salt
Formula: C7H4N3NaOS
CAS: 53004-70-9
Instrument: SF-4A
Origin: INSTITUTE OF ENERGY PROBLEMS OF CHEMICAL PHYSICS, RAS
Wavelength (nm)	Logarithm epsilon
220.643	4.077
221.643	4.036
222.643	3.998
223.643	3.962
224.643	3.929
225.643	3.898
226.643	3.871
227.643	3.846
228.643	3.825
229.643	3.807
230.643	3.792
231.643	3.781
232.643	3.773
233.643	3.769
234.643	3.767
235.643	3.768
236.643	3.772
237.643	3.776
238.643	3.781
239.643	3.786
240.643	3.789
241.365	3.789
242.365	3.784
243.365	3.776
244.365	3.766
245.365	3.756
246.365	3.746
247.365	3.738
248.365	3.732
249.365	3.726
250.365	3.722
251.365	3.718
251.598	3.716
252.598	3.716
253.598	3.706
254.598	3.691
255.598	3.674
256.598	3.658
257.598	3.645
258.598	3.636
259.598	3.629
260.598	3.625
261.598	3.621
262.598	3.617
263.598	3.609
264.598	3.595
265.598	3.572
266.598	3.539
267.716	3.497
268.46	3.472
269.46	3.451
270.46	3.433
271.46	3.42
272.46	3.419
273.46	3.435
274.321	3.489
274.367	3.493
275.367	3.544
276.367	3.543
277.367	3.508
277.437	3.502
278.437	3.472
279.437	3.458
280.437	3.458
281.437	3.475
282.437	3.512
283.437	3.577
286.136	3.701
286.391	3.715
287.391	3.753
288.391	3.784
289.391	3.81
290.391	3.831
291.391	3.849
292.391	3.864
293.391	3.877
294.391	3.889
295.391	3.899
296.391	3.909
297.391	3.917
298.391	3.926
299.391	3.934
300.391	3.942
301.391	3.95
302.391	3.958
303.391	3.965
304.391	3.972
305.391	3.979
306.391	3.985
307.391	3.991
308.391	3.996
309.391	4
310.391	4.003
311.391	4.006
312.391	4.008
313.391	4.009
314.391	4.01
315.391	4.011
316.391	4.012
316.579	4.012
317.579	4.013
318.579	4.014
319.579	4.015
320.579	4.015
321.579	4.015
322.579	4.014
323.579	4.013
324.579	4.01
325.579	4.007
326.579	4.002
327.579	3.996
328.579	3.989
329.579	3.982
330.579	3.973
331.579	3.963
332.579	3.952
333.579	3.94
334.579	3.927
335.579	3.914
336.579	3.899
337.579	3.884
338.579	3.869
338.581	3.868
339.581	3.851
340.581	3.836
341.581	3.822
342.581	3.81
343.581	3.797
344.581	3.784
345.581	3.77
346.581	3.755
347.581	3.74
348.581	3.724
349.581	3.708
350.581	3.691
351.581	3.674
352.581	3.657
353.581	3.64
354.581	3.624
355.581	3.607
356.581	3.591
357.581	3.575
358.581	3.558
359.581	3.541
360.581	3.522
360.838	3.519
361.838	3.49
362.838	3.464
363.838	3.44
364.838	3.417
365.838	3.396
366.838	3.375
367.838	3.355
368.838	3.334
369.838	3.314
370.838	3.293
371.838	3.271
372.838	3.249
373.838	3.227
374.838	3.203
375.838	3.179
376.838	3.154
377.838	3.127
378.838	3.1
379.838	3.07
380.838	3.039
381.838	3.006
382.643	2.981
383.607	2.959
