Uv/Vis Spectrum: Naphthalene, 1,7-dimethoxy-
Formula: C12H12O2
CAS: 5309-18-2
Instrument: Beckman spectophotometer
Origin: INSTITUTE OF ENERGY PROBLEMS OF CHEMICAL PHYSICS, RAS
Wavelength (nm)	Logarithm epsilon
219.527	4.5087
221.414	4.54894
222.601	4.57079
223.57	4.58085
224.559	4.58519
225.596	4.58356
227.255	4.56912
228.168	4.55373
229.016	4.5398
229.278	4.54042
229.626	4.53097
229.805	4.53091
230.141	4.53573
230.549	4.52706
231.42	4.54037
231.665	4.54138
232.66	4.55312
232.728	4.55498
232.795	4.55031
232.853	4.55556
232.978	4.55598
234.147	4.563
234.287	4.56664
236.187	4.55914
236.306	4.55302
236.313	4.56019
236.494	4.55833
236.683	4.55647
237.834	4.54315
237.974	4.54669
239.491	4.52882
239.611	4.52386
240.888	4.49722
240.896	4.50726
241.497	4.49496
241.988	4.49324
242.484	4.49054
242.723	4.47791
242.729	4.48543
242.733	4.48903
243.671	4.45603
243.738	4.45781
243.806	4.45349
243.863	4.45839
243.988	4.45881
244.513	4.42741
244.639	4.42869
244.765	4.42981
244.869	4.40647
244.88	4.41901
244.885	4.42512
244.89	4.43086
245.004	4.41718
245.068	4.41035
245.329	4.40272
245.413	4.39587
245.596	4.38217
245.657	4.3903
245.747	4.35054
245.772	4.35304
245.805	4.35555
245.872	4.3512
245.93	4.35621
246.022	4.35429
246.098	4.32423
246.192	4.31335
246.344	4.32055
246.414	4.25737
246.416	4.25987
246.42	4.26455
246.462	4.31297
246.498	4.22575
246.559	4.29572
246.594	4.2591
246.617	4.22382
246.627	4.2982
246.679	4.15286
246.681	4.15538
246.686	4.1604
246.71	4.18838
246.739	4.22173
246.778	4.26083
246.792	4.19576
246.804	4.22925
246.81	4.15989
246.869	4.22743
246.934	4.15922
246.964	4.19331
247.016	4.11005
247.077	4.11324
247.147	4.11635
247.175	4.06729
247.267	4.0711
247.365	4.07003
247.451	4.07832
247.502	4.03381
247.527	4.03629
247.56	4.0387
247.813	3.96121
247.868	3.96299
247.928	3.96476
247.965	3.93138
248.022	3.93018
248.088	3.92881
248.131	3.89759
248.157	3.92736
248.213	3.92939
248.247	3.90148
248.314	3.90327
248.348	3.86328
248.473	3.86051
248.499	3.86363
248.57	3.86945
248.906	3.80509
249.156	3.80609
249.313	3.70675
249.338	3.74287
249.441	3.70373
249.478	3.74641
249.62	3.70438
249.624	3.7094
249.973	3.61207
250.095	3.61594
250.839	3.54894
250.966	3.55248
258	3.40863
258.249	3.40854
260.274	3.43899
260.87	3.45247
266.069	3.55351
266.524	3.56566
268.693	3.60112
269.316	3.60199
270.45	3.61829
271.746	3.63091
273.595	3.64856
273.889	3.65181
276.169	3.68029
276.42	3.6813
277.615	3.69984
278.19	3.71045
278.279	3.70924
278.472	3.70641
279.528	3.71248
279.778	3.71348
281.486	3.70953
282.989	3.69943
284.565	3.68955
284.769	3.68448
284.939	3.68293
285.02	3.68006
286.158	3.67786
286.407	3.67777
290.436	3.64083
290.561	3.64221
290.687	3.64351
291.535	3.63506
291.909	3.63493
292.64	3.61601
294.564	3.56704
295.686	3.51447
295.808	3.51084
297.671	3.42303
297.727	3.4244
297.795	3.42079
297.829	3.41899
300.209	3.3288
300.33	3.32517
302.786	3.24059
303.028	3.23272
303.764	3.21272
303.834	3.21772
303.923	3.2166
304.116	3.21404
304.896	3.18827
305.014	3.18214
315.038	3.24003
315.613	3.24694
315.977	3.24958
316.169	3.25069
316.633	3.24699
317.296	3.25747
321.723	3.2275
322.147	3.22418
322.609	3.22223
322.804	3.22216
330.289	3.31871
330.866	3.33844
333.198	3.33761
333.232	3.33571
333.266	3.33365
334.739	3.2598
334.856	3.25702
335.181	3.20129
335.544	3.20249
336.002	3.07972
336.118	3.02349
336.147	3.04153
336.157	3.05383
336.776	2.9047
336.778	2.90721
336.782	2.91223
336.961	2.91171
337.143	2.91102
337.789	2.80029
337.793	2.80531
339.123	2.6344
339.608	2.63782
