Uv/Vis Spectrum: Ethylene, 1,1-diphenyl-
Formula: C14H12
CAS: 530-48-3
Melting point: 8.2
Boiling point: 277
Instrument: n.i.g.
Origin: INSTITUTE OF ENERGY PROBLEMS OF CHEMICAL PHYSICS, RAS
Wavelength (nm)	Logarithm epsilon
214.54	4.25
214.66	4.249
214.77	4.248
214.89	4.247
215	4.246
215.11	4.245
215.23	4.245
215.34	4.243
215.57	4.242
215.68	4.241
215.79	4.24
215.91	4.24
216.86	4.233
217.77	4.227
218.64	4.221
219.32	4.217
220	4.211
221.64	4.204
223.41	4.199
224.77	4.199
226.57	4.196
228.18	4.19
229.39	4.185
230.91	4.178
231.91	4.171
233.16	4.162
234.12	4.153
235	4.145
235.88	4.135
237.04	4.12
237.72	4.108
238.41	4.092
239.09	4.077
239.77	4.069
240.45	4.062
241.13	4.057
242.5	4.052
243.18	4.059
243.86	4.061
245.22	4.065
245.9	4.069
246.59	4.072
247.95	4.072
248.63	4.073
249.31	4.071
250	4.068
250.69	4.067
251.36	4.065
252.31	4.058
253.19	4.052
253.92	4.045
254.77	4.036
255.45	4.026
256.13	4.014
256.81	4.001
257.43	3.989
258.18	3.972
259.13	3.948
260.22	3.922
261.11	3.901
261.96	3.882
262.72	3.863
263.45	3.844
264.31	3.822
264.99	3.798
265.68	3.776
266.25	3.758
267.05	3.734
267.73	3.709
268.32	3.687
269.03	3.661
269.77	3.632
270.45	3.602
271.26	3.571
272.5	3.526
273.46	3.491
274.54	3.45
275.9	3.409
277.26	3.368
279.31	3.296
