Uv/Vis Spectrum: (9cis, 13cis)-14-methylretinal
Formula: C21H30O
CAS: 53153-17-6
Instrument: unknown
Origin: INSTITUTE OF ENERGY PROBLEMS OF CHEMICAL PHYSICS, RAS
Wavelength (nm)	Logarithm epsilon
200.406	3.863
201.406	3.877
202.406	3.883
203.406	3.883
204.406	3.879
205.406	3.874
206.406	3.868
207.406	3.863
208.406	3.859
209.406	3.857
210.406	3.856
211.406	3.858
212.406	3.861
213.406	3.865
214.406	3.871
215.406	3.878
216.406	3.885
217.406	3.892
218.406	3.899
219.406	3.905
220.406	3.91
221.406	3.913
222.406	3.915
223.406	3.914
224.406	3.912
225.406	3.909
226.406	3.903
227.406	3.896
228.406	3.889
229.406	3.88
230.82	3.865
231.82	3.854
232.82	3.846
233.82	3.84
234.82	3.835
235.82	3.831
236.82	3.83
237.82	3.829
238.82	3.829
239.82	3.829
240.82	3.83
241.82	3.832
242.82	3.833
243.82	3.834
244.82	3.835
245.82	3.835
246.659	3.833
247.325	3.829
248.325	3.825
249.325	3.821
250.325	3.816
251.325	3.812
252.325	3.807
253.325	3.803
254.325	3.799
255.325	3.795
256.325	3.791
257.325	3.787
258.325	3.784
259.325	3.782
260.325	3.78
261.325	3.778
262.325	3.777
263.325	3.776
264.325	3.775
265.325	3.776
266.325	3.776
267.325	3.777
268.325	3.779
269.325	3.781
270.325	3.783
271.325	3.786
272.325	3.789
273.325	3.793
274.325	3.797
275.325	3.801
276.325	3.805
277.325	3.81
278.325	3.815
279.325	3.82
280.325	3.826
281.325	3.832
282.325	3.837
283.325	3.844
284.325	3.85
285.325	3.856
285.813	3.856
286.813	3.866
287.813	3.875
288.813	3.884
289.813	3.894
290.813	3.903
291.813	3.912
292.813	3.921
293.813	3.931
294.813	3.94
295.813	3.949
296.813	3.959
297.813	3.968
298.813	3.978
299.813	3.988
300.813	3.997
301.813	4.008
302.813	4.018
303.813	4.028
304.813	4.039
305.813	4.05
306.813	4.061
307.813	4.072
308.813	4.084
309.813	4.096
311.129	4.111
312.129	4.123
313.129	4.135
314.129	4.146
315.129	4.158
316.129	4.17
317.129	4.182
318.129	4.194
319.129	4.205
320.129	4.217
321.129	4.228
322.129	4.24
323.129	4.251
324.129	4.262
325.129	4.274
326.129	4.284
327.129	4.295
328.129	4.306
329.129	4.316
330.129	4.326
331.129	4.336
332.129	4.345
333.129	4.355
334.129	4.364
335.129	4.372
335.782	4.379
336.782	4.386
337.782	4.392
338.782	4.398
339.782	4.404
340.782	4.409
341.782	4.414
342.782	4.419
343.782	4.423
344.782	4.426
345.782	4.429
346.782	4.432
347.782	4.434
348.782	4.436
349.782	4.437
350.782	4.438
351.782	4.439
352.782	4.439
353.782	4.438
354.782	4.438
355.782	4.436
356.782	4.435
357.782	4.433
358.782	4.431
359.782	4.428
360.782	4.425
361.782	4.422
362.782	4.418
363.782	4.413
364.782	4.409
365.782	4.403
366.782	4.398
367.782	4.391
368.782	4.384
369.782	4.376
370.782	4.367
371.782	4.358
372.782	4.347
373.782	4.335
374.782	4.322
375.782	4.307
376.782	4.291
377.782	4.273
379.663	4.233
380.663	4.206
381.663	4.178
382.663	4.151
383.663	4.124
384.663	4.097
385.663	4.071
386.663	4.045
387.663	4.019
388.663	3.992
389.663	3.966
390.663	3.94
391.663	3.914
392.663	3.888
393.663	3.861
394.663	3.835
395.663	3.808
396.663	3.781
397.663	3.754
398.663	3.726
399.926	3.687
400.926	3.662
401.926	3.637
402.926	3.612
403.926	3.587
404.926	3.561
405.926	3.535
406.926	3.509
407.926	3.481
408.926	3.453
409.926	3.424
410.926	3.393
411.926	3.362
412.926	3.329
413.926	3.295
414.926	3.259
415.926	3.221
416.926	3.181
417.926	3.14
