Uv/Vis Spectrum: N-methyl-4-nitroso-N-phenylbenzenamine
Formula: C13H12N2O
CAS: 53158-79-5
Melting point: 44
Origin: INSTITUTE OF ENERGY PROBLEMS OF CHEMICAL PHYSICS, RAS
Wavelength (nm)	Logarithm epsilon
245.022	3.707
246.022	3.709
247.022	3.712
248.022	3.716
249.022	3.719
250.022	3.723
251.022	3.728
252.022	3.732
253.022	3.737
254.022	3.742
255.022	3.746
256.022	3.751
257.022	3.755
258.022	3.759
259.022	3.763
260.022	3.767
261.022	3.77
262.022	3.773
263.022	3.776
264.022	3.779
265.022	3.781
266.022	3.783
267.022	3.785
268.022	3.787
269.022	3.788
270.022	3.789
271.022	3.79
272.022	3.791
273.022	3.792
274.022	3.792
275.022	3.792
276.022	3.792
277.022	3.792
278.022	3.792
279.022	3.791
280.022	3.791
281.022	3.79
282.022	3.789
283.022	3.788
284.022	3.787
285.022	3.785
286.022	3.784
287.022	3.782
288.022	3.78
289.022	3.778
290.022	3.775
291.022	3.772
292.022	3.769
293.022	3.766
294.022	3.762
295.022	3.757
296.022	3.753
297.022	3.747
298.022	3.742
299.022	3.735
300.022	3.728
301.022	3.721
302.022	3.713
303.022	3.704
304.022	3.694
305.022	3.685
306.022	3.674
307.022	3.664
308.022	3.653
309.022	3.642
309.754	3.633
310.754	3.624
311.754	3.615
312.754	3.604
313.754	3.592
314.754	3.579
315.754	3.565
316.754	3.55
317.754	3.534
318.754	3.517
319.754	3.499
320.754	3.481
321.754	3.462
322.754	3.442
323.754	3.422
324.754	3.401
325.754	3.38
326.754	3.359
327.754	3.338
328.754	3.316
329.754	3.295
330.754	3.274
331.754	3.254
332.754	3.234
333.754	3.216
334.754	3.198
335.754	3.182
336.754	3.167
337.754	3.154
338.754	3.143
339.754	3.134
340.754	3.127
341.754	3.122
342.754	3.12
343.754	3.119
344.754	3.121
345.754	3.125
346.754	3.131
347.754	3.139
348.754	3.148
349.754	3.158
350.754	3.17
351.754	3.182
352.754	3.196
353.754	3.21
354.754	3.224
355.754	3.239
356.754	3.254
357.754	3.269
358.754	3.284
359.754	3.3
360.754	3.315
361.754	3.33
362.754	3.345
363.754	3.36
364.754	3.375
365.754	3.39
366.754	3.406
367.754	3.421
368.754	3.436
369.754	3.452
371.196	3.471
372.196	3.496
373.196	3.517
374.196	3.535
375.196	3.551
376.196	3.566
377.196	3.579
378.196	3.593
379.196	3.606
380.196	3.619
381.196	3.633
382.196	3.648
383.196	3.662
384.196	3.678
385.196	3.693
386.196	3.709
387.196	3.726
388.196	3.742
389.196	3.759
390.196	3.775
391.196	3.792
392.196	3.809
393.196	3.826
394.196	3.842
395.196	3.859
396.196	3.876
397.196	3.893
398.196	3.91
399.196	3.928
400.196	3.947
401.196	3.967
402.172	3.992
403.172	4.007
404.172	4.024
405.172	4.041
406.172	4.058
407.172	4.074
408.172	4.091
409.172	4.106
410.172	4.121
411.172	4.135
412.172	4.148
413.172	4.161
414.172	4.172
415.172	4.182
416.172	4.191
417.172	4.2
418.172	4.207
419.172	4.213
420.172	4.218
421.172	4.223
422.172	4.226
423.172	4.229
424.172	4.23
425.172	4.231
426.172	4.231
427.172	4.23
428.172	4.229
429.172	4.227
430.172	4.224
431.172	4.22
432.172	4.216
433.172	4.212
434.172	4.207
435.172	4.201
436.172	4.196
436.878	4.195
437.878	4.186
438.878	4.176
439.878	4.166
440.878	4.156
441.878	4.146
442.878	4.136
443.878	4.125
444.878	4.114
445.878	4.103
446.878	4.092
447.878	4.08
448.878	4.068
449.878	4.056
450.878	4.044
451.878	4.031
452.878	4.018
453.878	4.005
454.878	3.991
455.878	3.977
456.878	3.963
457.878	3.948
458.878	3.933
459.878	3.918
460.878	3.902
461.878	3.886
462.878	3.87
463.878	3.854
464.878	3.837
465.878	3.82
466.878	3.802
467.878	3.785
468.878	3.767
469.878	3.748
470.878	3.73
471.878	3.711
472.878	3.692
473.878	3.673
474.878	3.653
475.878	3.633
476.878	3.613
477.878	3.593
478.878	3.573
479.878	3.552
480.878	3.531
481.878	3.509
482.878	3.487
483.878	3.463
484.878	3.44
485.878	3.414
