Uv/Vis Spectrum: 7-methoxy-2H-1-benzopyran-2-one
Formula: C10H8O3
CAS: 531-59-9
Melting point: 119-120
Instrument: Cary 17
Origin: INSTITUTE OF ENERGY PROBLEMS OF CHEMICAL PHYSICS, RAS
Wavelength (nm)	Logarithm epsilon
244.898	3.568
245.898	3.494
246.898	3.459
247.898	3.45
248.898	3.455
249.898	3.465
250.898	3.473
251.898	3.474
252.898	3.465
253.898	3.445
254.898	3.414
255.898	3.373
256.898	3.325
257.898	3.274
258.898	3.224
259.898	3.179
260.898	3.144
261.898	3.125
262.898	3.126
263.813	3.147
264.813	3.195
265.813	3.24
266.813	3.282
267.813	3.322
268.813	3.36
269.813	3.396
270.813	3.43
271.813	3.462
272.813	3.493
273.813	3.522
274.813	3.55
275.813	3.577
276.813	3.602
277.813	3.626
278.813	3.649
279.813	3.672
280.813	3.693
281.813	3.714
282.813	3.734
283.813	3.754
284.813	3.773
285.813	3.791
286.813	3.809
287.593	3.825
288.593	3.838
289.593	3.852
290.593	3.867
291.593	3.882
292.593	3.896
293.593	3.909
294.593	3.92
295.593	3.931
296.593	3.939
297.593	3.947
298.593	3.954
299.593	3.96
300.593	3.966
301.593	3.972
302.593	3.978
303.593	3.986
304.593	3.994
305.593	4.004
306.593	4.016
307.593	4.029
308.593	4.044
309.593	4.06
310.593	4.076
311.593	4.093
312.593	4.11
313.512	4.122
314.537	4.133
315.434	4.141
316.434	4.146
317.434	4.151
318.473	4.158
319.373	4.163
320.434	4.161
321.434	4.162
322.434	4.163
323.434	4.163
324.434	4.161
325.434	4.159
326.434	4.155
327.434	4.15
328.434	4.143
329.434	4.135
330.434	4.125
331.434	4.113
332.434	4.1
333.434	4.085
334.434	4.068
335.434	4.049
336.434	4.028
337.434	4.005
338.434	3.98
339.38	3.954
340.35	3.925
341.35	3.891
342.35	3.859
343.35	3.826
344.35	3.792
345.35	3.756
346.35	3.716
347.35	3.67
348.35	3.618
349.35	3.559
350.35	3.491
351.35	3.413
352.35	3.324
353.35	3.222
354.35	3.106
355.35	2.975
356.488	2.812
357.488	2.662
358.488	2.503
359.488	2.336
