Uv/Vis Spectrum: 2,3-dihydro-5,6-dimethyl-2-thioxothieno[2,3-d]pyrimidin-4(1H)-one, monopotassium salt
Formula: C8H7KN2OS2
CAS: 53162-51-9
Melting point: >350
Instrument: SF-4A
Origin: INSTITUTE OF ENERGY PROBLEMS OF CHEMICAL PHYSICS, RAS
Wavelength (nm)	Logarithm epsilon
234.073	4.197
234.48	4.194
235.48	4.187
236.48	4.18
237.48	4.173
238.48	4.167
239.48	4.161
240.48	4.155
241.48	4.15
242.48	4.145
243.48	4.14
244.48	4.136
245.48	4.132
246.48	4.128
247.48	4.124
248.48	4.12
249.48	4.115
250.48	4.111
251.48	4.105
252.48	4.1
253.48	4.094
254.48	4.088
255.48	4.081
256.48	4.074
257.48	4.066
258.48	4.057
259.48	4.049
260.48	4.04
261.48	4.031
262.48	4.021
263.48	4.012
264.48	4.002
265.48	3.992
266.48	3.983
267.48	3.973
268.48	3.964
269.48	3.955
270.48	3.945
271.48	3.936
272.48	3.926
273.48	3.916
274.48	3.905
275.48	3.893
276.48	3.878
277.48	3.862
278.464	3.847
279.464	3.812
280.464	3.774
281.464	3.738
282.464	3.708
283.464	3.686
284.464	3.672
285.464	3.665
286.464	3.663
287.464	3.663
288.464	3.664
288.645	3.663
289.645	3.662
290.645	3.665
291.645	3.671
292.645	3.68
293.645	3.697
294.645	3.727
295.645	3.779
296.669	3.908
296.698	3.938
296.79	3.926
297.79	3.958
298.79	3.978
299.79	3.991
300.79	4.002
301.79	4.013
302.79	4.025
303.79	4.038
304.79	4.051
305.79	4.063
306.157	4.066
307.157	4.073
308.157	4.08
309.157	4.088
310.157	4.094
311.157	4.1
312.157	4.104
313.157	4.107
314.157	4.108
315.157	4.109
316.157	4.108
317.157	4.107
318.157	4.104
319.157	4.101
320.157	4.098
321.157	4.094
322.04	4.09
323.04	4.083
324.04	4.076
325.04	4.07
326.04	4.063
327.04	4.056
328.04	4.048
329.04	4.041
330.04	4.033
331.04	4.026
332.04	4.018
333.04	4.01
334.04	4.002
335.04	3.995
336.04	3.988
337.04	3.982
338.04	3.976
339.04	3.972
340.04	3.969
341.04	3.967
342.04	3.966
343.04	3.967
344.04	3.969
345.04	3.973
346.04	3.979
347.04	3.986
348.04	3.995
348.512	4
349.512	4.01
350.512	4.02
351.512	4.029
352.512	4.036
353.512	4.043
354.512	4.05
355.512	4.056
356.512	4.061
357.512	4.066
358.512	4.071
359.512	4.075
360.512	4.079
361.512	4.084
362.512	4.088
363.512	4.093
364.512	4.098
365.512	4.104
366.512	4.11
367.512	4.117
368.512	4.124
369.512	4.132
370.512	4.14
371.512	4.149
371.725	4.15
372.725	4.165
373.725	4.177
374.725	4.187
375.725	4.194
376.725	4.2
377.725	4.205
378.725	4.208
379.725	4.21
380.725	4.211
381.725	4.211
382.725	4.211
383.725	4.211
384.725	4.21
385.725	4.209
386.725	4.208
387.725	4.207
388.725	4.205
389.725	4.203
390.725	4.2
391.725	4.196
392.725	4.191
393.725	4.184
394.725	4.176
395.725	4.165
396.161	4.163
397.161	4.151
398.161	4.139
399.161	4.126
400.161	4.112
401.161	4.099
402.161	4.085
403.161	4.072
404.161	4.06
405.161	4.048
406.161	4.037
407.161	4.027
408.161	4.017
409.161	4.009
410.161	4
411.161	3.993
412.161	3.986
413.161	3.979
414.161	3.973
415.161	3.967
416.161	3.961
417.161	3.955
418.161	3.949
419.161	3.942
420.161	3.936
421.161	3.929
422.161	3.922
423.04	3.914
424.04	3.908
425.04	3.902
426.04	3.896
427.04	3.89
428.04	3.884
429.04	3.878
430.04	3.872
431.04	3.866
432.04	3.86
433.04	3.854
434.04	3.848
435.04	3.842
436.04	3.837
437.04	3.831
438.04	3.826
439.04	3.821
440.04	3.815
441.04	3.81
442.04	3.806
443.04	3.801
444.04	3.796
445.04	3.792
446.04	3.787
447.04	3.783
448.04	3.779
449.04	3.775
450.04	3.771
451.04	3.768
452.04	3.764
453.04	3.761
454.04	3.758
455.04	3.755
456.04	3.752
457.04	3.749
458.04	3.747
459.04	3.744
460.04	3.742
461.04	3.74
462.04	3.738
463.04	3.736
464.04	3.734
465.04	3.732
466.04	3.731
467.04	3.729
468.04	3.728
469.04	3.726
470.04	3.725
471.04	3.724
472.04	3.722
473.04	3.721
474.04	3.72
475.04	3.719
476.04	3.718
477.04	3.717
478.04	3.716
479.04	3.715
480.04	3.713
481.04	3.712
482.04	3.711
483.04	3.71
484.04	3.709
485.04	3.707
486.04	3.706
487.04	3.705
