Uv/Vis Spectrum: Borazine, 2,4,6-trimethyl-
Formula: C3H12B3N3
CAS: 5314-85-2
Instrument: McPherson 225
Origin: INSTITUTE OF ENERGY PROBLEMS OF CHEMICAL PHYSICS, RAS
Wavelength (nm)	Logarithm epsilon
119.65	4.28
119.7	4.28
119.75	4.28
119.8	4.283
119.85	4.283
119.9	4.283
119.95	4.287
120.01	4.287
120.06	4.287
120.11	4.287
120.21	4.29
120.41	4.294
120.61	4.301
120.82	4.304
121.02	4.311
121.22	4.315
121.43	4.318
121.64	4.325
121.84	4.329
122.05	4.332
122.26	4.339
122.47	4.343
122.68	4.35
123.1	4.353
123.31	4.36
123.53	4.363
123.74	4.37
123.95	4.374
124.17	4.381
124.38	4.384
124.6	4.384
124.82	4.388
125.04	4.388
125.47	4.402
125.69	4.409
126.14	4.419
126.36	4.419
126.58	4.419
126.81	4.419
127.03	4.416
127.26	4.416
127.71	4.419
127.94	4.419
128.17	4.419
128.4	4.419
128.63	4.412
128.86	4.412
129.09	4.409
129.33	4.409
129.56	4.402
129.8	4.398
130.03	4.391
130.27	4.388
130.51	4.381
130.74	4.374
131.22	4.36
131.47	4.353
131.71	4.346
131.95	4.336
132.19	4.329
132.44	4.325
132.68	4.315
132.93	4.304
133.18	4.294
133.43	4.287
133.67	4.28
133.92	4.273
134.18	4.263
134.43	4.256
134.68	4.242
134.93	4.235
135.19	4.228
135.44	4.221
135.7	4.214
135.96	4.207
136.22	4.197
136.48	4.193
136.74	4.186
137	4.179
137.26	4.172
137.53	4.169
137.79	4.162
138.06	4.155
138.32	4.151
138.86	4.137
139.13	4.134
139.4	4.13
139.67	4.12
139.95	4.117
140.22	4.11
140.5	4.11
140.77	4.103
141.05	4.099
141.33	4.089
141.61	4.085
141.89	4.085
142.17	4.085
142.45	4.085
142.74	4.085
143.02	4.085
143.31	4.089
143.6	4.096
143.88	4.099
144.17	4.103
144.46	4.106
144.76	4.113
145.05	4.12
145.34	4.123
145.64	4.13
145.94	4.137
146.24	4.144
146.53	4.151
146.84	4.158
147.14	4.165
147.44	4.176
147.74	4.183
148.05	4.19
148.36	4.2
148.67	4.203
148.97	4.214
149.29	4.221
149.6	4.231
149.91	4.238
150.22	4.256
150.54	4.259
150.86	4.266
151.18	4.277
151.5	4.287
151.82	4.297
152.14	4.304
152.46	4.315
152.79	4.325
153.12	4.336
153.45	4.35
153.77	4.36
154.11	4.37
154.44	4.381
154.77	4.395
155.11	4.405
155.44	4.412
155.78	4.426
156.46	4.45
156.81	4.454
157.15	4.464
157.5	4.471
157.84	4.482
158.19	4.489
158.54	4.492
158.89	4.499
159.25	4.503
159.6	4.503
159.96	4.503
160.32	4.503
161.04	4.496
161.4	4.489
161.77	4.478
162.13	4.471
162.5	4.454
162.87	4.437
163.24	4.423
163.62	4.398
163.99	4.377
164.37	4.36
164.75	4.332
165.13	4.304
165.51	4.273
165.89	4.256
166.28	4.231
166.66	4.217
167.05	4.207
167.44	4.19
167.84	4.176
168.23	4.158
168.63	4.144
169.02	4.134
169.42	4.099
169.83	4.078
170.23	4.057
170.64	4.037
171.04	4.012
171.45	3.988
171.86	3.974
172.28	3.953
172.69	3.922
173.11	3.894
173.53	3.873
173.95	3.838
174.38	3.8
174.8	3.772
175.23	3.73
175.66	3.696
176.09	3.661
176.53	3.63
176.96	3.595
177.4	3.563
177.84	3.532
178.28	3.494
178.73	3.466
179.18	3.428
179.63	3.386
180.08	3.355
180.53	3.323
180.99	3.285
181.45	3.254
181.91	3.216
182.37	3.188
182.84	3.153
183.31	3.122
183.78	3.09
184.25	3.052
184.73	3.024
185.2	2.993
185.68	2.958
186.17	2.923
186.65	2.889
187.14	2.864
187.63	2.833
188.12	2.809
188.62	2.788
189.12	2.76
189.62	2.743
190.12	2.725
190.63	2.701
191.65	2.666
192.16	2.652
192.68	2.635
193.2	2.617
193.72	2.597
194.25	2.565
194.78	2.523
195.31	2.478
195.84	2.402
196.38	2.256
196.92	2.148
197.46	2.043
198.01	1.922
198.56	1.803
199.11	1.685
199.67	1.536
200.23	1.421
200.79	1.285
201.35	1.174
201.92	1.07
