Uv/Vis Spectrum: 4,5-dihydro-7-methoxynaphtho[2,1-b]furan-2(3aH)-one
Formula: C13H12O3
CAS: 53264-19-0
Melting point: 144
Instrument: unknown
Origin: INSTITUTE OF ENERGY PROBLEMS OF CHEMICAL PHYSICS, RAS
Wavelength (nm)	Logarithm epsilon
214.566	3.975
215.566	3.979
216.566	3.987
217.566	3.999
218.566	4.011
219.566	4.024
220.566	4.035
221.566	4.046
222.566	4.054
223.566	4.061
224.566	4.065
225.566	4.066
226.566	4.064
227.566	4.058
228.566	4.046
229.566	4.027
230.566	3.997
231.384	3.956
232.384	3.895
233.384	3.831
234.384	3.765
235.384	3.696
236.384	3.625
237.384	3.554
238.384	3.481
239.384	3.411
240.384	3.344
241.384	3.285
242.384	3.237
243.384	3.203
244.384	3.187
245.384	3.189
246.384	3.208
247.384	3.239
248.384	3.28
249.384	3.326
250.384	3.375
251.384	3.424
252.384	3.473
253.384	3.52
254.384	3.564
255.384	3.606
256.384	3.645
257.384	3.681
258.384	3.716
259.384	3.747
260.384	3.777
261.384	3.805
262.384	3.831
263.259	3.852
264.259	3.879
265.259	3.903
266.259	3.926
267.259	3.948
268.259	3.969
269.259	3.989
270.259	4.009
271.259	4.029
272.259	4.047
273.259	4.066
274.259	4.083
275.259	4.1
276.259	4.117
277.259	4.132
278.259	4.147
279.259	4.161
279.428	4.164
280.428	4.177
281.428	4.192
282.428	4.207
283.428	4.222
284.428	4.235
285.428	4.248
286.428	4.26
287.428	4.27
288.428	4.278
289.428	4.285
290.428	4.291
291.428	4.296
292.428	4.299
293.428	4.302
294.428	4.304
295.428	4.306
296.428	4.307
297.428	4.31
298.428	4.313
299.241	4.317
300.241	4.32
301.241	4.324
302.241	4.328
303.241	4.33
304.241	4.332
305.241	4.332
306.241	4.33
307.241	4.328
308.241	4.324
309.241	4.319
309.801	4.315
310.801	4.308
311.801	4.297
312.801	4.284
313.801	4.27
314.801	4.256
315.801	4.241
316.801	4.226
317.801	4.208
318.801	4.189
319.801	4.165
320.801	4.138
321.729	4.116
322.729	4.069
323.729	4.021
324.729	3.97
325.729	3.919
326.729	3.866
327.729	3.811
328.729	3.755
329.729	3.697
330.729	3.638
331.729	3.577
332.729	3.516
333.729	3.454
334.729	3.391
335.729	3.33
336.729	3.269
337.729	3.211
