Uv/Vis Spectrum: Naphthalene, 1-ethoxy-
Formula: C12H12O
CAS: 5328-01-8
Melting point: 5.5
Boiling point: 280.5
Instrument: Unicam SP 700
Origin: INSTITUTE OF ENERGY PROBLEMS OF CHEMICAL PHYSICS, RAS
Wavelength (nm)	Logarithm epsilon
204.62	4.354
205.14	4.372
205.65	4.391
206.16	4.409
206.68	4.428
207.19	4.446
207.71	4.465
208.73	4.504
209.64	4.531
210.76	4.565
211.82	4.585
213.44	4.59
214.9	4.575
216.95	4.548
217.9	4.533
219.01	4.511
220.05	4.49
221.06	4.474
222.17	4.449
224.14	4.437
225.17	4.437
226.19	4.441
227.23	4.455
228.63	4.49
230.31	4.511
232.36	4.502
233.39	4.492
234.39	4.468
235.45	4.428
236.47	4.382
237.23	4.314
237.98	4.214
238.53	4.123
239.04	4.023
239.57	3.922
240.07	3.823
240.88	3.703
241.69	3.592
242.53	3.496
243.53	3.397
244.69	3.302
245.72	3.228
246.75	3.163
247.77	3.117
248.8	3.102
249.83	3.117
250.92	3.139
251.88	3.163
253.94	3.219
255.92	3.275
258.05	3.339
260.1	3.385
261.15	3.409
262.16	3.44
263.18	3.459
264.92	3.492
266.27	3.523
268.32	3.56
269.35	3.579
270.34	3.609
271.4	3.634
273.46	3.671
274.49	3.689
277.57	3.745
279.62	3.782
280.66	3.794
281.76	3.8
283.05	3.799
284.34	3.796
285.79	3.791
286.93	3.787
288.87	3.782
289.9	3.782
290.92	3.782
291.95	3.782
293.3	3.785
295.24	3.781
297.09	3.773
298.47	3.758
300.17	3.736
301.6	3.701
302.47	3.682
303.25	3.662
303.98	3.647
305.16	3.636
306.18	3.647
307.18	3.667
307.86	3.669
308.39	3.662
309.26	3.64
310.45	3.597
311.47	3.542
312.5	3.477
313.53	3.413
314.22	3.382
315.58	3.357
316.61	3.357
317.64	3.376
318.66	3.394
319.62	3.429
320.17	3.44
320.72	3.431
321.23	3.409
321.75	3.357
322.21	3.303
322.85	3.235
323.18	3.177
323.5	3.129
323.8	3.08
324.36	3.016
324.79	2.954
325.23	2.888
325.76	2.812
326.3	2.734
326.88	2.665
327.38	2.587
327.91	2.517
328.46	2.426
328.94	2.342
329.32	2.261
330.08	2.181
330.99	2.102
332.02	2.01
333.05	1.908
334.08	1.834
335.1	1.751
336.13	1.677
337.16	1.604
337.63	1.529
338.18	1.438
339.21	1.354
340.24	1.271
341.27	1.188
342.29	1.105
