Uv/Vis Spectrum: 2,4-dihchloroazuleno[2,1-b]pyridine-10-carbonitrile
Formula: C14H6Cl2N2
CAS: 53299-94-8
Melting point: 295
Instrument: Hitachi EPS-3
Origin: INSTITUTE OF ENERGY PROBLEMS OF CHEMICAL PHYSICS, RAS
Wavelength (nm)	Logarithm epsilon
254.683	4.28
255.683	4.27
256.683	4.256
257.683	4.238
258.683	4.217
259.683	4.195
260.683	4.172
261.683	4.148
262.683	4.124
263.683	4.101
264.683	4.079
265.683	4.058
266.683	4.038
267.683	4.02
268.683	4.004
269.683	3.99
270.683	3.978
271.683	3.968
272.683	3.96
273.683	3.954
274.683	3.95
275.683	3.948
276.683	3.948
277.683	3.949
278.683	3.953
279.683	3.957
280.683	3.964
281.683	3.972
282.683	3.981
283.683	3.991
284.683	4.002
285.683	4.015
286.683	4.028
287.683	4.042
288.683	4.057
289.683	4.073
290.683	4.089
291.683	4.105
292.683	4.122
293.683	4.139
294.683	4.156
295.683	4.173
296.683	4.189
297.683	4.205
298.156	4.207
299.156	4.224
300.156	4.24
301.156	4.257
302.156	4.274
303.156	4.291
304.156	4.309
305.156	4.328
306.156	4.348
307.156	4.368
308.156	4.389
309.156	4.41
310.156	4.432
311.156	4.454
312.156	4.475
313.156	4.497
314.156	4.518
315.156	4.538
316.156	4.557
317.156	4.575
318.156	4.592
319.156	4.607
320.156	4.621
321.156	4.632
322.156	4.642
323.156	4.651
324.156	4.657
325.156	4.662
326.156	4.666
327.156	4.668
328.156	4.67
329.156	4.671
330.156	4.672
331.156	4.675
332.156	4.678
333.156	4.685
334.156	4.694
335.156	4.708
335.257	4.707
336.257	4.703
337.257	4.705
338.257	4.704
339.257	4.686
340.257	4.641
341.257	4.554
342.257	4.413
342.522	4.361
342.752	4.269
343.752	4.187
344.752	4.112
345.752	4.044
346.752	3.982
347.752	3.926
348.752	3.875
349.752	3.83
350.752	3.79
351.752	3.755
352.752	3.724
353.752	3.698
354.752	3.675
355.752	3.657
356.752	3.642
357.752	3.63
358.752	3.621
359.752	3.615
360.752	3.612
361.752	3.61
362.752	3.611
363.752	3.613
364.752	3.617
365.752	3.622
366.752	3.628
367.752	3.634
368.752	3.641
369.752	3.648
370.752	3.655
371.752	3.661
372.752	3.667
373.483	3.669
374.483	3.672
375.483	3.676
376.483	3.681
377.483	3.685
378.483	3.688
379.483	3.689
380.483	3.689
381.483	3.687
382.483	3.683
383.483	3.679
384.483	3.675
385.483	3.672
386.483	3.669
387.483	3.669
388.483	3.671
389.483	3.675
390.483	3.682
391.483	3.693
392.483	3.705
393.483	3.72
394.483	3.735
395.483	3.749
396.483	3.76
397.483	3.766
398.483	3.763
399.483	3.748
400.367	3.728
401.064	3.714
401.761	3.696
402.806	3.671
403.851	3.654
404.897	3.615
405.942	3.605
406.988	3.594
408.033	3.594
409.017	3.623
410.017	3.645
411.017	3.667
412.017	3.688
413.017	3.705
414.017	3.718
415.017	3.724
416.017	3.721
417.017	3.709
418.705	3.679
419.705	3.638
420.705	3.538
421.705	3.378
422.202	3.286
423.202	3.107
424.202	2.995
425.202	2.931
426.202	2.9
427.202	2.889
428.202	2.886
429.202	2.885
430.202	2.879
430.685	2.872
431.685	2.86
432.685	2.848
433.685	2.838
434.685	2.829
435.685	2.821
436.685	2.814
437.685	2.808
438.685	2.803
439.685	2.799
441.45	2.79
442.45	2.785
443.45	2.782
444.45	2.778
445.45	2.775
446.45	2.772
447.45	2.77
448.45	2.768
449.45	2.766
450.45	2.764
451.45	2.763
452.45	2.761
453.45	2.76
454.45	2.759
455.45	2.759
456.45	2.758
457.45	2.758
458.45	2.757
459.45	2.757
460.45	2.757
461.45	2.757
462.45	2.757
463.45	2.757
464.45	2.757
465.45	2.757
466.45	2.758
467.45	2.758
468.45	2.758
469.45	2.759
470.45	2.759
471.45	2.76
472.45	2.761
473.45	2.761
474.45	2.762
475.45	2.763
476.45	2.764
477.45	2.765
478.45	2.765
479.45	2.766
480.45	2.767
481.45	2.767
482.45	2.767
483.45	2.767
484.45	2.767
485.45	2.766
486.45	2.764
487.45	2.762
488.45	2.759
489.45	2.755
490.45	2.75
491.45	2.743
492.45	2.734
493.407	2.721
