Uv/Vis Spectrum: 3a,4,5,6-tetrahydro-2H-benzo[3,4]cyclohepta[1,2-b]furan-2-one
Formula: C13H12O2
CAS: 53264-16-7
Melting point: 74
Instrument: unknown
Origin: INSTITUTE OF ENERGY PROBLEMS OF CHEMICAL PHYSICS, RAS
Wavelength (nm)	Logarithm epsilon
227.985	3.954
228.197	3.951
228.409	3.949
228.5	3.937
229.5	3.895
230.5	3.854
231.5	3.815
232.5	3.778
233.5	3.744
234.5	3.714
235.5	3.69
236.5	3.671
237.5	3.658
238.5	3.652
239.5	3.651
240.5	3.656
241.5	3.665
242.5	3.678
243.5	3.694
244.5	3.713
245.365	3.733
246.365	3.75
247.365	3.773
248.365	3.799
249.365	3.825
250.365	3.851
251.365	3.875
252.365	3.897
253.365	3.917
254.365	3.935
255.365	3.95
256.365	3.965
257.21	3.976
258.21	3.99
259.21	4.003
260.21	4.014
261.21	4.024
262.21	4.032
263.21	4.04
264.21	4.046
265.21	4.05
266.21	4.054
267.21	4.056
268.21	4.057
269.21	4.056
270.21	4.055
271.21	4.051
272.21	4.046
273.21	4.04
274.21	4.032
275.21	4.023
276.21	4.013
277.036	4.005
288.126	3.766
289.126	3.74
290.126	3.712
291.126	3.682
292.126	3.651
293.126	3.621
294.126	3.59
295.126	3.56
296.126	3.532
297.126	3.504
298.126	3.478
299.126	3.453
300.126	3.429
301.126	3.405
302.126	3.383
303.126	3.36
304.126	3.338
305.126	3.316
306.126	3.294
307.126	3.275
