Uv/Vis Spectrum: 6H- cyclohepta [cd] phenalen-6-one
Formula: C17H10O
CAS: 53260-28-9
Melting point: 144-146
Instrument: Hitachi 124
Origin: INSTITUTE OF ENERGY PROBLEMS OF CHEMICAL PHYSICS, RAS
Wavelength (nm)	Logarithm epsilon
227.072	4.423
228.369	4.326
229.68	4.273
230.925	4.257
232.266	4.262
233.623	4.272
234.995	4.272
236.384	4.249
237.789	4.193
239.211	4.1
239.213	4.102
240.652	4.037
242.109	3.984
243.583	3.946
245.075	3.926
246.586	3.92
248.116	3.927
249.664	3.941
251.232	3.959
252.82	3.979
254.428	4
256.057	4.024
257.402	4.049
259.07	4.08
260.758	4.111
262.469	4.14
264.203	4.167
265.96	4.189
267.74	4.207
269.544	4.217
271.373	4.22
273.226	4.211
275.02	4.213
276.924	4.223
278.854	4.246
280.812	4.279
282.797	4.32
284.811	4.362
286.853	4.402
288.925	4.434
289.025	4.436
291.129	4.46
293.263	4.471
295.429	4.471
297.627	4.465
299.858	4.454
302.123	4.442
304.174	4.429
306.505	4.418
308.872	4.398
311.275	4.374
313.717	4.346
316.196	4.317
318.716	4.288
321.276	4.26
323.877	4.236
326.521	4.214
329.208	4.194
331.94	4.177
334.504	4.161
337.325	4.135
340.194	4.098
343.112	4.047
346.081	3.986
349.101	3.925
352.13	3.886
355.258	3.841
358.441	3.789
361.682	3.73
364.983	3.671
368.344	3.612
371.767	3.554
375.255	3.497
378.808	3.443
382.43	3.409
382.884	3.403
386.584	3.373
390.357	3.346
394.204	3.324
398.127	3.312
402.13	3.317
406.214	3.341
410.381	3.38
414.635	3.417
418.242	3.469
422.661	3.519
427.175	3.567
431.786	3.618
436.498	3.675
441.314	3.741
446.237	3.815
451.271	3.895
456.421	3.977
461.689	4.058
467.08	4.137
471.231	4.162
476.849	4.183
482.602	4.208
488.496	4.279
494.535	4.403
500.726	4.504
501.115	4.507
507.472	4.633
513.993	4.684
520.684	4.672
527.551	4.608
533.616	4.482
540.831	4.109
541.284	4.119
548.709	3.828
556.341	3.641
564.188	3.443
572.26	3.282
573.649	3.281
