Uv/Vis Spectrum: 2-beta-D-ribofuranosyl-2H-pyrazolo[3,4-b]pyrazine
Formula: C10H12N4O4
CAS: 53226-33-8
Melting point: 161-162
Instrument: Unicam SP-800
Origin: INSTITUTE OF ENERGY PROBLEMS OF CHEMICAL PHYSICS, RAS
Wavelength (nm)	Logarithm epsilon
201.939	3.886
202.939	3.957
203.939	4.008
204.939	4.046
205.939	4.073
206.939	4.093
207.939	4.106
208.939	4.114
209.939	4.117
210.939	4.116
211.939	4.112
212.939	4.105
213.939	4.096
214.027	4.094
215.027	4.074
216.027	4.043
217.027	4.002
218.027	3.952
219.027	3.894
220.027	3.829
221.027	3.759
222.027	3.684
222.756	3.632
223.756	3.548
224.756	3.481
225.756	3.423
226.756	3.372
227.756	3.324
228.756	3.278
229.756	3.233
230.756	3.189
231.756	3.148
232.756	3.108
233.756	3.072
234.756	3.04
235.756	3.01
236.756	2.981
238.002	2.942
239.002	2.913
240.002	2.887
241.002	2.864
242.002	2.845
243.002	2.83
244.002	2.821
245.002	2.817
246.002	2.818
247.002	2.826
248.002	2.84
249.002	2.859
250.002	2.883
251.002	2.911
252.002	2.942
253.002	2.976
254.002	3.012
255.002	3.049
256.002	3.088
257.002	3.127
258.002	3.166
259.002	3.205
260.002	3.244
261.002	3.282
262.002	3.32
263.002	3.357
264.002	3.394
264.694	3.43
265.694	3.466
266.694	3.502
267.694	3.537
268.694	3.572
269.694	3.606
270.694	3.64
271.694	3.672
272.694	3.705
273.694	3.736
274.694	3.767
275.694	3.797
276.694	3.826
277.694	3.854
278.694	3.882
279.694	3.909
280.383	3.925
281.383	3.952
282.383	3.974
283.383	3.992
284.383	4.008
285.383	4.022
286.383	4.033
287.383	4.042
288.383	4.049
289.383	4.053
290.383	4.056
291.383	4.055
292.383	4.052
293.383	4.045
294.383	4.035
295.383	4.021
296.383	4.004
297.383	3.982
298.129	3.962
299.129	3.947
300.129	3.931
301.129	3.912
302.129	3.893
303.129	3.873
304.129	3.852
305.129	3.832
306.129	3.812
307.129	3.793
308.129	3.775
309.129	3.759
310.129	3.745
311.129	3.733
312.129	3.722
313.129	3.713
314.129	3.706
314.931	3.701
315.931	3.694
316.931	3.686
317.931	3.677
318.931	3.669
319.931	3.66
320.931	3.65
321.931	3.641
322.931	3.631
323.931	3.62
324.931	3.61
325.931	3.599
326.931	3.588
327.931	3.576
328.931	3.565
329.931	3.552
330.931	3.54
331.931	3.527
332.931	3.514
333.931	3.501
334.931	3.487
335.931	3.473
336.931	3.458
337.931	3.443
338.931	3.428
339.931	3.411
340.931	3.395
341.931	3.377
342.931	3.359
343.931	3.34
344.931	3.32
345.931	3.299
346.931	3.276
347.931	3.253
348.931	3.227
349.931	3.199
350.931	3.169
