Uv/Vis Spectrum: 6-Chloronicotinic acid
Formula: C6H4ClNO2
CAS: 5326-23-8
Melting point: 190
Boiling point: 138.5-139.5 (4)
Instrument: n.i.g.
Origin: INSTITUTE OF ENERGY PROBLEMS OF CHEMICAL PHYSICS, RAS
Wavelength (nm)	Logarithm epsilon
220	4.04999
221	4.07
222	4.08
223	4.09
224	4.1
225	4.1
226	4.1
227	4.1
228	4.09
229	4.07
230	4.04999
231	4.03
232	4.01
233	3.98
234	3.95
235	3.91
236	3.86
237	3.81
238	3.75
239	3.68
240	3.6
241	3.55
242	3.51
243	3.47
244	3.44
245	3.41
246	3.4
247	3.39
248	3.39
249	3.4
250	3.41
251	3.43
252	3.44
253	3.46
254	3.47
255	3.49
256	3.51
257	3.52
258	3.54
259	3.56
260	3.58
261	3.59
262	3.61
263	3.62
264	3.64
265	3.65
266	3.66
267	3.67
268	3.67
269	3.65
270	3.62
271	3.58
272	3.56
273	3.56
274	3.56
275	3.56
276	3.54
277	3.46
278	3.26
279	3.07
