Uv/Vis Spectrum: (Z,Z)-2,3-bis(phenylmethylene)-1,4-butanediol
Formula: C18H18O2
CAS: 53243-98-4
Melting point: 138-139
Instrument: Perkin-Elmer 137
Origin: INSTITUTE OF ENERGY PROBLEMS OF CHEMICAL PHYSICS, RAS
Wavelength (nm)	Logarithm epsilon
220.25	3.926
220.501	3.926
220.751	3.926
221.002	3.926
221.252	3.926
221.503	3.926
221.753	3.926
222.004	3.926
222.059	3.928
223.059	3.925
224.059	3.92
225.059	3.914
226.059	3.909
227.059	3.902
228.059	3.896
229.059	3.89
230.059	3.885
231.059	3.879
232.059	3.875
233.059	3.871
234.059	3.867
235.059	3.864
236.059	3.862
237.059	3.861
238.059	3.861
239.059	3.861
240.059	3.862
241.059	3.864
242.059	3.867
243.059	3.871
244.059	3.875
245.059	3.881
246.059	3.888
247.059	3.895
248.059	3.903
249.059	3.912
250.059	3.923
251.059	3.934
252.059	3.946
253.059	3.959
254.059	3.972
255.059	3.987
256.059	4.003
257.059	4.019
258.059	4.036
259.059	4.053
260.059	4.071
261.059	4.09
262.059	4.108
263.059	4.126
264.059	4.144
265.059	4.161
266.059	4.178
267.059	4.192
267.079	4.194
268.079	4.207
269.079	4.219
270.079	4.231
271.079	4.243
272.079	4.255
273.079	4.267
274.079	4.278
275.079	4.288
276.079	4.298
277.079	4.308
278.079	4.316
279.079	4.324
280.079	4.332
281.079	4.338
282.079	4.344
283.079	4.349
284.079	4.354
285.079	4.358
286.079	4.362
287.079	4.365
288.079	4.367
289.079	4.369
290.079	4.37
291.079	4.371
292.079	4.371
293.079	4.37
294.079	4.369
295.079	4.368
296.079	4.366
297.079	4.363
298.079	4.359
299.079	4.355
300.079	4.35
301.079	4.344
302.079	4.338
303.079	4.33
304.079	4.322
305.079	4.312
306.079	4.302
307.079	4.29
308.079	4.277
309.079	4.264
310.079	4.249
310.088	4.248
311.088	4.234
312.088	4.217
313.088	4.2
314.088	4.181
315.088	4.161
316.088	4.141
317.088	4.12
318.088	4.098
319.088	4.076
320.088	4.052
321.088	4.028
322.088	4.003
323.088	3.977
324.088	3.95
325.088	3.922
326.088	3.892
327.088	3.861
328.088	3.828
329.088	3.794
330.088	3.757
331.088	3.719
332.088	3.678
333.088	3.636
334.088	3.592
334.161	3.588
335.161	3.544
336.161	3.501
337.161	3.456
338.161	3.408
339.161	3.358
340.161	3.305
341.161	3.25
342.161	3.193
343.161	3.135
344.161	3.076
345.161	3.019
346.161	2.962
347.161	2.907
348.161	2.854
349.161	2.8
349.824	2.765
