Uv/Vis Spectrum: (E,Z)-bis(phenylmethylene)butanedioic acid
Formula: C18H14O4
CAS: 53243-90-6
Melting point: 181-183 (dec.)
Instrument: Perkin-Elmer 137
Origin: INSTITUTE OF ENERGY PROBLEMS OF CHEMICAL PHYSICS, RAS
Wavelength (nm)	Logarithm epsilon
224.493	4.229
225.493	4.215
226.493	4.199
227.493	4.183
228.493	4.167
229.493	4.152
230.493	4.139
231.493	4.129
232.493	4.12
233.493	4.115
234.493	4.113
235.493	4.114
236.493	4.117
237.493	4.124
238.493	4.133
239.493	4.144
240.493	4.157
241.493	4.172
242.493	4.188
243.493	4.206
244.493	4.223
245.493	4.241
246.493	4.259
247.493	4.276
248.493	4.292
249.493	4.307
250.493	4.321
251.493	4.334
252.493	4.345
253.493	4.354
254.493	4.361
255.493	4.367
256.493	4.371
257.493	4.374
258.493	4.374
259.493	4.373
260.493	4.37
261.493	4.366
262.493	4.358
263.493	4.348
264.296	4.34
265.296	4.32
266.296	4.303
267.296	4.287
268.296	4.273
269.296	4.26
270.296	4.249
271.296	4.238
272.296	4.228
273.296	4.219
274.296	4.21
275.296	4.201
276.296	4.193
277.296	4.184
278.296	4.176
279.296	4.167
280.296	4.159
281.296	4.151
282.296	4.142
283.296	4.133
284.296	4.124
285.296	4.115
286.296	4.106
287.296	4.097
288.296	4.088
289.296	4.078
290.296	4.068
291.296	4.058
292.296	4.047
293.296	4.037
294.296	4.026
295.296	4.015
296.296	4.003
297.296	3.991
298.296	3.979
299.296	3.967
300.296	3.954
301.296	3.94
302.296	3.926
303.296	3.912
304.296	3.897
305.296	3.881
306.296	3.865
307.296	3.849
308.296	3.833
309.15	3.817
310.15	3.8
311.15	3.784
312.15	3.768
313.15	3.752
314.15	3.737
315.15	3.721
316.15	3.706
317.15	3.69
318.15	3.675
319.15	3.659
320.15	3.643
321.15	3.626
322.15	3.61
323.15	3.593
324.15	3.576
325.15	3.559
326.15	3.541
327.15	3.523
328.15	3.505
329.15	3.486
330.15	3.466
331.15	3.446
332.15	3.425
333.15	3.402
334.15	3.379
335.15	3.354
336.15	3.328
337.381	3.301
337.437	3.296
338.437	3.268
339.437	3.237
340.437	3.206
341.437	3.177
342.437	3.149
343.437	3.122
344.437	3.097
345.437	3.073
346.437	3.049
347.437	3.023
348.437	2.997
349.437	2.97
350.437	2.943
351.437	2.918
352.437	2.898
