Uv/Vis Spectrum: 2,4-bis(acetoxy)azuleno[2,1-b]pyridine-10-carbonitrile
Formula: C18H12N2O4
CAS: 53299-93-7
Melting point: 234 dec.
Instrument: Hitachi EPS-3
Origin: INSTITUTE OF ENERGY PROBLEMS OF CHEMICAL PHYSICS, RAS
Wavelength (nm)	Logarithm epsilon
238.739	4.4
239.739	4.396
240.739	4.387
241.739	4.373
242.739	4.357
243.739	4.339
244.739	4.322
245.739	4.306
246.739	4.291
247.739	4.278
248.739	4.267
249.739	4.257
250.739	4.249
251.739	4.243
252.739	4.238
253.739	4.234
254.739	4.23
255.739	4.227
256.739	4.224
257.739	4.221
258.739	4.216
259.739	4.211
260.739	4.205
261.739	4.198
262.739	4.19
263.739	4.18
264.739	4.168
265.739	4.156
266.739	4.142
267.739	4.127
268.739	4.112
269.739	4.096
270.739	4.079
271.739	4.063
272.739	4.047
273.739	4.031
274.739	4.017
275.739	4.004
276.739	3.992
277.739	3.982
278.739	3.975
279.739	3.969
280.739	3.967
281.739	3.966
282.739	3.969
283.739	3.974
284.739	3.982
285.739	3.992
286.739	4.005
287.739	4.02
288.739	4.037
289.739	4.055
290.739	4.075
291.739	4.095
292.739	4.116
293.739	4.137
294.68	4.162
295.68	4.175
296.68	4.189
297.68	4.205
298.68	4.223
299.68	4.24
300.68	4.259
301.68	4.277
302.68	4.295
303.68	4.314
304.68	4.333
305.68	4.352
306.68	4.371
307.68	4.39
308.68	4.409
309.68	4.428
310.68	4.447
311.68	4.466
312.68	4.486
313.68	4.505
314.68	4.524
315.68	4.542
316.68	4.56
317.68	4.577
318.68	4.594
319.68	4.609
320.68	4.622
321.68	4.635
322.68	4.645
323.68	4.654
324.68	4.661
325.68	4.667
326.68	4.672
327.68	4.675
328.68	4.678
329.68	4.681
330.68	4.685
331.68	4.692
332.68	4.703
333.68	4.718
334.287	4.732
335.287	4.757
336.287	4.784
337.287	4.807
338.287	4.819
339.287	4.818
340.287	4.801
341.287	4.767
342.287	4.715
343.287	4.648
344.287	4.568
345.287	4.481
346.287	4.391
346.945	4.336
347.945	4.271
348.945	4.208
349.945	4.149
350.945	4.092
351.945	4.04
352.945	3.991
353.945	3.946
354.945	3.905
355.945	3.869
356.945	3.838
357.945	3.81
358.945	3.787
359.945	3.769
360.945	3.754
361.945	3.744
362.945	3.737
363.945	3.734
364.945	3.734
365.945	3.737
366.945	3.742
367.945	3.749
368.945	3.757
369.945	3.767
370.945	3.776
371.945	3.785
372.945	3.793
373.945	3.799
374.945	3.802
375.945	3.801
376.345	3.797
377.345	3.79
378.345	3.783
379.345	3.775
380.345	3.769
381.345	3.766
382.345	3.765
383.345	3.768
384.345	3.773
385.345	3.782
386.345	3.793
387.345	3.807
388.345	3.822
389.345	3.837
390.345	3.853
391.345	3.868
392.345	3.881
393.345	3.891
394.345	3.899
395.345	3.902
396.345	3.902
397.345	3.897
398.345	3.887
399.345	3.873
400.345	3.855
401.345	3.834
402.345	3.81
403.345	3.787
404.345	3.764
404.519	3.761
405.519	3.742
406.519	3.727
407.519	3.718
408.519	3.716
409.519	3.72
410.519	3.732
411.519	3.75
412.519	3.773
413.519	3.8
414.519	3.83
415.519	3.86
416.519	3.89
417.519	3.917
418.519	3.939
419.519	3.954
420.519	3.961
421.519	3.959
422.519	3.945
423.519	3.921
424.519	3.884
425.519	3.835
426.519	3.776
427.519	3.707
427.535	3.708
428.535	3.609
429.535	3.525
430.535	3.452
431.535	3.39
432.535	3.336
433.535	3.289
434.535	3.249
435.535	3.214
436.535	3.183
437.535	3.155
438.535	3.129
439.535	3.105
440.535	3.082
441.535	3.06
442.535	3.039
443.535	3.018
444.535	2.997
445.535	2.975
446.535	2.954
447.535	2.932
448.535	2.91
449.535	2.888
450.535	2.866
451.535	2.845
452.535	2.823
453.535	2.803
454.535	2.782
455.535	2.763
456.535	2.745
457.535	2.728
458.535	2.711
459.535	2.697
460.535	2.683
461.535	2.671
462.535	2.66
463.535	2.65
464.535	2.64
464.839	2.638
465.839	2.625
466.839	2.616
467.839	2.609
468.839	2.605
469.839	2.604
470.839	2.603
471.839	2.604
472.839	2.606
473.839	2.609
474.839	2.612
475.839	2.615
476.839	2.618
477.839	2.62
478.839	2.623
479.839	2.624
480.839	2.626
481.839	2.627
482.839	2.627
483.839	2.627
484.839	2.626
485.839	2.624
486.839	2.623
487.839	2.621
488.839	2.619
489.839	2.616
490.839	2.614
491.839	2.612
492.839	2.61
493.839	2.609
494.839	2.608
495.839	2.607
496.839	2.608
497.839	2.609
498.839	2.612
