Uv/Vis Spectrum: 2,4-dichloroazuleno[2,1-b]pyridine
Formula: C13H7Cl2N
CAS: 53299-99-3
Melting point: 163-164
Instrument: Hitachi EPS-3
Origin: INSTITUTE OF ENERGY PROBLEMS OF CHEMICAL PHYSICS, RAS
Wavelength (nm)	Logarithm epsilon
245.438	4.087
246.438	4.071
247.438	4.058
248.438	4.047
249.438	4.038
250.438	4.03
251.438	4.025
252.438	4.021
253.438	4.019
254.438	4.018
255.438	4.02
256.438	4.022
257.438	4.026
258.438	4.032
259.438	4.039
260.438	4.047
261.438	4.056
262.438	4.066
263.438	4.077
264.438	4.09
265.438	4.103
266.438	4.117
267.438	4.132
268.438	4.147
269.438	4.164
270.438	4.18
271.438	4.197
272.438	4.215
273.438	4.233
274.438	4.252
275.438	4.27
276.438	4.289
277.438	4.308
278.438	4.327
279.438	4.345
280.438	4.364
281.438	4.383
282.438	4.401
283.438	4.419
284.438	4.437
285.438	4.454
286.438	4.471
287.438	4.487
288.146	4.485
289.146	4.513
290.146	4.538
291.146	4.558
292.146	4.576
293.146	4.592
294.146	4.606
295.146	4.618
296.146	4.629
297.146	4.638
298.146	4.648
299.146	4.657
300.146	4.666
301.146	4.675
302.146	4.684
303.146	4.693
304.146	4.701
305.146	4.71
306.146	4.718
307.146	4.725
308.146	4.73
309.146	4.733
310.146	4.733
311.146	4.73
312.146	4.722
313.146	4.708
313.85	4.683
314.85	4.669
315.85	4.653
316.85	4.637
317.85	4.624
318.85	4.615
319.85	4.608
320.85	4.604
321.85	4.602
322.85	4.597
323.85	4.586
324.85	4.566
325.85	4.53
326.85	4.473
327.85	4.386
328.85	4.261
329.667	4.155
330.667	3.958
331.667	3.822
332.667	3.73
333.667	3.671
334.667	3.635
335.667	3.614
336.667	3.602
337.667	3.595
338.667	3.59
339.667	3.585
340.667	3.579
341.667	3.573
342.667	3.568
343.667	3.564
344.667	3.563
345.667	3.566
346.667	3.574
347.667	3.587
348.667	3.605
349.667	3.627
350.626	3.652
351.626	3.666
352.626	3.681
353.626	3.696
354.626	3.709
355.626	3.72
356.626	3.727
357.626	3.73
358.626	3.728
359.626	3.723
360.626	3.715
361.626	3.703
362.626	3.69
363.626	3.675
364.626	3.659
365.626	3.645
366.626	3.632
367.626	3.621
368.626	3.614
369.626	3.612
370.626	3.615
371.626	3.623
372.626	3.637
373.626	3.658
374.626	3.684
375.626	3.715
376.626	3.75
377.626	3.788
377.912	3.824
378.912	3.835
379.912	3.832
380.912	3.82
381.912	3.802
382.912	3.78
383.912	3.758
384.912	3.736
385.912	3.717
386.912	3.701
387.912	3.69
388.912	3.683
389.912	3.681
390.912	3.683
391.912	3.69
392.912	3.7
393.912	3.712
394.912	3.726
395.912	3.741
396.912	3.756
397.912	3.77
398.912	3.782
399.912	3.79
400.912	3.795
401.912	3.796
402.912	3.791
403.912	3.782
404.912	3.767
405.912	3.748
406.912	3.725
407.175	3.715
408.175	3.695
409.175	3.667
410.175	3.632
411.175	3.593
412.175	3.549
413.175	3.502
414.175	3.453
415.175	3.403
416.175	3.352
417.175	3.303
418.175	3.254
419.175	3.207
420.175	3.163
421.175	3.121
422.175	3.082
422.943	3.043
423.943	3.016
424.943	2.992
425.943	2.97
426.943	2.949
427.943	2.93
428.943	2.912
429.943	2.895
430.943	2.879
431.943	2.864
432.943	2.849
433.943	2.835
434.943	2.821
435.943	2.807
436.943	2.794
437.943	2.782
438.943	2.769
439.943	2.757
440.943	2.745
441.943	2.733
442.943	2.721
443.943	2.71
444.943	2.699
445.943	2.688
446.943	2.678
447.943	2.668
448.943	2.658
449.943	2.648
450.943	2.639
451.943	2.631
452.943	2.622
453.943	2.615
454.943	2.607
455.943	2.601
456.943	2.594
457.943	2.589
458.943	2.584
459.943	2.579
460.943	2.575
461.943	2.572
462.943	2.569
463.943	2.566
464.943	2.564
465.943	2.563
466.943	2.562
467.943	2.561
468.943	2.561
469.943	2.561
470.943	2.561
471.943	2.562
472.943	2.563
473.943	2.564
474.943	2.565
475.943	2.566
476.943	2.567
477.943	2.568
478.943	2.569
479.943	2.57
480.943	2.57
481.943	2.571
482.943	2.57
483.943	2.57
484.943	2.569
485.943	2.568
486.943	2.566
487.943	2.564
488.943	2.561
489.943	2.559
490.943	2.556
491.943	2.553
492.943	2.549
493.943	2.546
494.943	2.543
495.943	2.541
496.943	2.539
