Uv/Vis Spectrum: 1-acetyl-4-(acetyloxy)-1,2-dihydro-2-oxoazuleno[2,1-b]pyridine-10-carbonitrile
Formula: C18H12N2O4
CAS: 53299-95-9
Melting point: > 300
Instrument: Hitachi EPS-3
Origin: INSTITUTE OF ENERGY PROBLEMS OF CHEMICAL PHYSICS, RAS
Wavelength (nm)	Logarithm epsilon
224.473	4.275
226.473	4.292
228.473	4.308
230.473	4.323
232.473	4.335
234.473	4.344
236.473	4.349
238.473	4.351
240.473	4.349
242.473	4.343
244.473	4.332
246.473	4.317
248.473	4.296
250.473	4.269
252.473	4.236
254.449	4.192
256.449	4.142
258.449	4.104
260.449	4.076
262.449	4.056
264.449	4.044
266.449	4.037
268.449	4.035
270.449	4.036
272.449	4.04
274.449	4.046
276.449	4.053
278.449	4.061
280.449	4.07
282.449	4.079
284.449	4.089
286.449	4.1
288.449	4.111
290.449	4.124
292.449	4.138
294.449	4.154
296.449	4.172
298.449	4.193
300.449	4.217
302.449	4.243
304.449	4.273
306.449	4.304
306.582	4.303
308.582	4.343
310.582	4.376
312.582	4.407
314.582	4.439
316.582	4.474
318.582	4.513
320.582	4.554
322.582	4.595
324.582	4.635
326.582	4.672
328.582	4.704
330.582	4.73
332.582	4.75
334.582	4.763
336.582	4.768
338.582	4.766
340.582	4.755
342.582	4.733
344.582	4.694
346.582	4.632
348.032	4.555
350.032	4.43
352.032	4.336
354.032	4.266
356.032	4.215
358.032	4.177
360.032	4.149
362.032	4.126
364.032	4.107
366.032	4.09
368.032	4.074
370.032	4.057
372.032	4.041
374.032	4.024
376.032	4.007
378.032	3.991
380.032	3.976
382.032	3.962
384.032	3.95
385.946	3.936
388.011	3.922
389.732	3.913
391.798	3.9
394.035	3.886
396.622	3.88
399.027	3.881
401.027	3.895
403.027	3.899
405.027	3.893
407.027	3.876
409.027	3.849
411.027	3.812
413.027	3.765
415.027	3.711
417.027	3.65
419.027	3.582
421.027	3.509
423.027	3.432
425.027	3.351
427.084	3.271
429.084	3.191
431.084	3.125
433.084	3.073
435.084	3.03
437.084	2.996
439.084	2.967
441.084	2.944
443.084	2.925
445.084	2.909
447.084	2.894
449.084	2.881
451.084	2.869
453.084	2.858
455.084	2.847
457.084	2.838
459.084	2.828
461.084	2.82
463.084	2.813
465.084	2.806
467.084	2.801
469.084	2.797
471.084	2.795
473.084	2.793
475.084	2.793
477.084	2.794
479.084	2.796
481.084	2.798
483.084	2.799
485.641	2.798
487.641	2.798
489.641	2.797
491.641	2.795
493.641	2.791
495.641	2.786
497.641	2.779
