Uv/Vis Spectrum: 4-hydroxyazuleno[2,1-b]pyridin-2(1H)-one
Formula: C13H9NO2
CAS: 53299-97-1
Melting point: > 290
Instrument: Hitachi EPS-3
Origin: INSTITUTE OF ENERGY PROBLEMS OF CHEMICAL PHYSICS, RAS
Wavelength (nm)	Logarithm epsilon
246.422	4.161
247.422	4.145
248.422	4.128
249.422	4.108
250.422	4.085
251.422	4.059
252.422	4.031
253.422	4
254.422	3.969
255.422	3.937
256.422	3.906
257.422	3.876
258.422	3.848
259.422	3.824
260.422	3.804
261.422	3.788
262.422	3.776
263.422	3.77
264.422	3.768
265.422	3.771
266.422	3.778
267.422	3.789
268.422	3.803
269.422	3.819
270.422	3.836
271.422	3.854
272.405	3.872
273.405	3.885
274.405	3.898
275.405	3.912
276.405	3.926
277.405	3.94
278.405	3.955
279.405	3.969
280.405	3.984
281.405	3.999
282.405	4.014
283.405	4.03
284.405	4.045
285.405	4.061
286.405	4.077
287.405	4.094
288.405	4.11
289.405	4.127
290.405	4.144
291.405	4.161
292.405	4.178
293.405	4.196
294.405	4.213
295.405	4.231
296.405	4.249
297.405	4.268
298.405	4.286
299.405	4.305
300.405	4.324
301.405	4.343
302.405	4.363
303.405	4.382
304.405	4.402
305.405	4.422
306.405	4.442
307.405	4.463
308.405	4.483
309.405	4.504
310.405	4.525
311.405	4.546
312.405	4.568
312.698	4.571
313.698	4.604
314.698	4.625
315.698	4.638
316.698	4.648
317.698	4.657
318.698	4.668
319.698	4.68
320.698	4.696
321.698	4.714
322.698	4.733
323.698	4.754
324.698	4.773
325.698	4.789
326.698	4.801
327.698	4.806
328.698	4.802
329.698	4.788
330.698	4.762
331.698	4.725
332.698	4.674
333.698	4.613
334.698	4.542
335.698	4.464
336.698	4.385
337.175	4.362
338.175	4.281
339.175	4.235
340.175	4.21
341.175	4.195
342.175	4.183
343.175	4.165
344.175	4.139
345.175	4.102
346.175	4.056
347.175	4.003
348.095	3.957
349.095	3.91
350.095	3.873
351.095	3.844
352.095	3.823
353.095	3.807
354.095	3.796
355.095	3.788
356.095	3.783
357.095	3.779
358.095	3.776
359.095	3.774
360.095	3.772
361.095	3.769
362.095	3.767
363.095	3.763
364.095	3.76
365.095	3.755
366.095	3.751
367.095	3.746
368.095	3.742
369.095	3.738
370.095	3.735
371.095	3.732
372.095	3.731
373.095	3.732
374.095	3.735
375.095	3.739
376.095	3.746
376.715	3.75
377.715	3.763
378.715	3.775
379.715	3.784
380.715	3.791
381.715	3.796
382.715	3.798
383.715	3.799
384.715	3.797
385.715	3.794
386.715	3.79
387.715	3.784
388.715	3.778
389.715	3.772
390.715	3.766
391.715	3.761
392.715	3.757
393.715	3.753
394.715	3.752
395.715	3.751
396.715	3.753
397.715	3.756
398.715	3.76
399.715	3.765
400.715	3.771
401.715	3.777
402.715	3.781
403.715	3.784
404.715	3.783
405.715	3.777
406.715	3.765
415.87	3.176
416.87	3.119
417.87	3.069
418.87	3.025
419.87	2.988
420.87	2.956
421.87	2.928
422.87	2.904
423.87	2.885
424.87	2.868
425.87	2.854
426.87	2.842
427.87	2.832
428.87	2.824
429.87	2.817
430.87	2.812
431.87	2.808
432.87	2.804
433.87	2.801
434.87	2.799
435.87	2.797
436.87	2.795
437.87	2.794
438.87	2.793
439.87	2.792
440.87	2.791
441.87	2.79
442.87	2.789
443.87	2.789
444.87	2.788
445.87	2.787
446.87	2.786
447.87	2.786
448.87	2.785
449.87	2.785
450.87	2.785
451.87	2.784
452.87	2.784
453.87	2.784
454.87	2.785
455.87	2.785
456.87	2.785
457.87	2.786
458.87	2.787
459.87	2.787
460.87	2.788
461.87	2.789
462.87	2.79
463.87	2.792
464.87	2.793
465.87	2.794
466.87	2.795
467.87	2.796
468.87	2.797
469.87	2.798
470.87	2.799
471.87	2.8
472.87	2.8
473.87	2.801
474.87	2.801
475.87	2.801
476.87	2.801
477.87	2.802
478.87	2.802
479.87	2.802
480.87	2.802
481.87	2.803
482.87	2.804
483.87	2.805
484.87	2.808
485.87	2.811
486.296	2.807
