Uv/Vis Spectrum: 1,3,5-Trichloro-2,4,6-trimethylbenzene
Formula: C9H9Cl3
CAS: 5324-68-5
Melting point: 203.0-205.0
Instrument: SF-16
Origin: INSTITUTE OF ENERGY PROBLEMS OF CHEMICAL PHYSICS, RAS
Wavelength (nm)	Logarithm epsilon
220.03	4.075
220.58	4.064
221.12	4.052
221.66	4.041
223.28	4.002
224.91	3.974
226.53	3.952
228.16	3.935
229.78	3.924
231.41	3.913
233.03	3.862
234.66	3.745
236.28	3.538
237.9	3.348
239.53	3.185
241.15	3.018
242.78	2.839
244.4	2.604
246.03	2.425
247.65	2.257
249.28	2.1
250.9	1.96
252.52	1.877
255.77	1.832
257.4	1.854
259.02	1.882
260.65	1.927
262.27	1.966
263.9	2.016
265.52	2.061
267.14	2.095
268.77	2.139
270.39	2.167
272.02	2.195
273.64	2.223
276.89	2.24
278.52	2.207
280.14	2.173
281.76	2.145
283.39	2.123
285.01	2.072
286.64	1.977
288.26	1.854
289.89	1.7
291.51	1.569
293.14	1.468
