Uv/Vis Spectrum: Phenol, 2-iodo-
Formula: C6H5IO
CAS: 533-58-4
Melting point: 43
Boiling point: 186/ 180 mm; 91/ 2 mm
Instrument: Hilger E3 quartz spectrograph
Origin: INSTITUTE OF ENERGY PROBLEMS OF CHEMICAL PHYSICS, RAS
Wavelength (nm)	Logarithm epsilon
264.9	3.209
265.28	3.211
266.05	3.229
266.43	3.239
266.81	3.251
267.19	3.263
267.58	3.272
267.96	3.283
268.34	3.292
268.72	3.3
269.49	3.323
269.87	3.336
270.26	3.342
270.64	3.352
271.4	3.368
272.17	3.386
272.55	3.396
272.93	3.406
273.32	3.413
273.7	3.432
274.08	3.435
274.46	3.45
274.85	3.456
275.23	3.468
275.61	3.475
275.99	3.486
276.38	3.493
276.76	3.505
277.14	3.51
277.53	3.519
277.91	3.526
278.29	3.536
278.67	3.541
279.06	3.551
279.44	3.554
279.82	3.561
280.2	3.564
280.59	3.566
280.97	3.568
281.35	3.568
281.73	3.568
282.12	3.566
282.5	3.561
282.88	3.555
283.27	3.55
283.65	3.542
284.03	3.535
284.41	3.524
284.8	3.512
285.56	3.505
285.94	3.505
286.33	3.503
286.71	3.505
287.09	3.505
287.47	3.507
287.86	3.51
287.93	3.51
288.01	3.51
288.09	3.51
288.16	3.509
288.24	3.509
288.32	3.509
288.39	3.509
288.47	3.507
288.55	3.507
288.62	3.507
288.7	3.507
288.78	3.506
288.85	3.506
288.93	3.506
289.01	3.505
289.23	3.499
289.62	3.493
289.77	3.483
