Uv/Vis Spectrum: 5H-1-Pyrindine, 6,7-dihydro-
Formula: C8H9N
CAS: 533-37-9
Melting point: 199.5
Instrument: Beckman DU
Origin: INSTITUTE OF ENERGY PROBLEMS OF CHEMICAL PHYSICS, RAS
Wavelength (nm)	Logarithm epsilon
200.9	3.602
201.08	3.602
201.26	3.602
201.44	3.602
201.62	3.602
201.81	3.602
201.99	3.602
202.35	3.602
202.6	3.602
202.84	3.602
203.66	3.601
204.51	3.598
204.87	3.597
205.24	3.595
205.62	3.593
205.94	3.59
206.39	3.587
206.9	3.582
207.85	3.574
208.84	3.565
209.13	3.562
209.48	3.558
209.86	3.554
210.21	3.551
210.65	3.545
210.95	3.542
211.18	3.538
211.52	3.533
211.88	3.527
212.22	3.521
212.71	3.512
213.13	3.505
213.54	3.497
213.84	3.489
214.28	3.471
214.68	3.454
215.07	3.437
215.34	3.422
215.91	3.393
216.45	3.356
216.79	3.331
217.16	3.308
217.63	3.271
218.23	3.219
218.59	3.191
218.95	3.156
219.27	3.122
219.68	3.073
220.04	3.028
220.4	2.982
221.12	2.885
221.48	2.839
221.76	2.815
222.12	2.783
222.6	2.742
222.8	2.728
223.05	2.707
223.37	2.682
224.15	2.645
224.82	2.619
225.53	2.593
226.09	2.575
226.82	2.555
227.41	2.537
227.83	2.527
228.26	2.517
228.7	2.507
229.01	2.502
229.42	2.501
229.84	2.505
230.2	2.513
230.59	2.524
231.3	2.544
231.87	2.562
232.31	2.582
232.67	2.602
233.03	2.622
233.39	2.639
233.9	2.667
234.35	2.694
234.7	2.711
235.1	2.731
235.36	2.745
235.69	2.762
236.13	2.785
236.37	2.799
236.73	2.816
237.04	2.833
237.36	2.847
237.78	2.867
238.29	2.887
238.73	2.906
239.13	2.925
239.56	2.945
239.91	2.96
240.14	2.972
240.5	2.988
242.07	3.057
242.78	3.09
243.5	3.119
244.3	3.152
244.95	3.182
245.31	3.199
245.66	3.214
246.03	3.231
246.33	3.243
246.62	3.254
246.93	3.267
247.8	3.305
248.14	3.321
248.48	3.337
248.76	3.349
249.16	3.366
249.47	3.38
249.81	3.394
250.15	3.406
250.54	3.421
251.52	3.458
252.23	3.484
252.53	3.494
252.9	3.505
253.18	3.515
253.61	3.528
253.97	3.537
254.33	3.548
255.4	3.584
256.29	3.611
256.86	3.625
257.22	3.634
257.57	3.644
257.94	3.654
258.3	3.665
258.66	3.674
259	3.684
259.39	3.694
259.75	3.703
260.97	3.724
262.59	3.749
263.36	3.763
263.75	3.769
264.08	3.775
264.45	3.781
264.82	3.786
265.15	3.787
265.52	3.788
265.88	3.788
266.25	3.788
266.61	3.788
266.99	3.787
267.57	3.781
268.77	3.757
269.13	3.749
269.52	3.741
269.86	3.734
270.19	3.727
270.53	3.718
270.85	3.709
271.25	3.695
271.6	3.682
272.54	3.638
273.02	3.614
273.47	3.588
273.76	3.571
273.97	3.556
274.48	3.511
274.91	3.459
275.25	3.418
275.63	3.368
275.99	3.328
276.21	3.294
276.66	3.247
276.99	3.207
277.29	3.17
277.86	3.116
278.3	3.058
278.6	3.013
279	2.967
279.3	2.922
279.59	2.885
279.89	2.833
280.25	2.769
280.69	2.69
281.05	2.573
281.41	2.513
281.77	2.37
282.13	2.233
282.19	2.212
