Uv/Vis Spectrum: 2,4,6-Cycloheptatrien-1-one, 2-hydroxy-
Formula: C7H6O2
CAS: 533-75-5
Melting point: 49-49.5
Instrument: Beckman DU
Origin: INSTITUTE OF ENERGY PROBLEMS OF CHEMICAL PHYSICS, RAS
Wavelength (nm)	Logarithm epsilon
199.91	3.557
200.09	3.562
200.26	3.566
200.44	3.57
200.61	3.574
201.22	3.6
201.75	3.615
202.28	3.634
202.81	3.647
203.35	3.662
203.89	3.677
204.7	3.711
205.24	3.724
205.79	3.761
206.34	3.776
206.9	3.793
207.46	3.818
208.02	3.84
208.58	3.865
209.43	3.906
210	3.93
210.58	3.953
211.15	3.973
211.73	3.998
212.32	4.024
212.91	4.047
213.5	4.069
214.09	4.09
214.69	4.11
215.29	4.135
215.89	4.157
216.5	4.172
217.11	4.187
217.72	4.21
218.34	4.225
218.96	4.242
219.58	4.259
220.21	4.274
220.84	4.287
221.48	4.304
222.12	4.317
222.76	4.33
223.41	4.343
224.06	4.354
224.71	4.364
225.37	4.373
226.03	4.377
226.7	4.381
227.37	4.381
228.04	4.377
228.72	4.371
229.4	4.366
230.08	4.373
230.77	4.379
231.47	4.386
232.03	4.381
232.87	4.369
233.57	4.369
234.28	4.377
235	4.375
235.72	4.364
236.44	4.36
237.19	4.355
237.9	4.345
238.64	4.339
239.38	4.339
240.13	4.33
240.88	4.326
241.64	4.326
242.37	4.325
243.19	4.32
243.93	4.306
244.71	4.283
245.49	4.251
246.27	4.24
247.06	4.227
247.86	4.219
248.66	4.176
249.47	4.114
250.28	4.011
251.09	3.844
251.91	3.677
252.74	3.489
253.57	3.356
254.41	3.21
255.26	3.097
256.1	3.041
256.96	2.973
257.82	2.926
258.69	2.885
259.56	2.855
260.44	2.836
261.32	2.832
262.21	2.825
263.11	2.821
264.01	2.823
264.92	2.832
265.83	2.844
266.75	2.857
267.68	2.866
268.61	2.885
269.55	2.898
270.5	2.917
271.45	2.939
272.41	2.958
273.38	2.981
274.36	3.007
275.34	3.035
276.32	3.082
277.32	3.11
278.32	3.14
279.33	3.168
280.35	3.193
281.37	3.23
282.41	3.255
283.45	3.285
284.49	3.309
285.55	3.341
286.61	3.371
287.68	3.401
288.76	3.437
289.85	3.469
290.94	3.495
292.05	3.525
293.16	3.553
294.28	3.577
295.41	3.6
296.55	3.621
297.69	3.645
298.85	3.662
300.01	3.69
301.19	3.711
302.37	3.731
303.56	3.746
304.76	3.761
305.97	3.776
307.19	3.788
308.42	3.797
309.67	3.803
310.92	3.814
312.18	3.818
313.45	3.827
314.73	3.836
316.02	3.842
317.32	3.853
318.64	3.861
319.96	3.868
321.3	3.87
322.64	3.865
324	3.861
325.37	3.855
326.75	3.844
328.14	3.829
329.55	3.806
330.96	3.788
332.39	3.771
333.83	3.761
335.29	3.746
336.75	3.733
338.23	3.724
339.72	3.722
341.23	3.72
342.75	3.718
344.28	3.72
345.83	3.722
347.39	3.731
348.96	3.743
350.55	3.75
352.15	3.765
353.77	3.771
355.41	3.78
357.05	3.771
358.72	3.763
360.4	3.741
362.09	3.724
363.8	3.707
365.53	3.696
367.27	3.694
369.03	3.701
370.81	3.707
372.61	3.675
374.42	3.604
376.25	3.472
378.09	3.341
379.96	3.138
381.84	2.9
383.75	2.669
384.98	2.576
386.02	2.488
387.29	2.401
387.94	2.331
388.59	2.26
389.24	2.187
389.9	2.106
390.56	2.044
391.22	1.995
391.89	1.941
392.55	1.877
393.22	1.806
393.89	1.733
394.56	1.663
395.24	1.618
395.92	1.556
396.6	1.494
397.28	1.402
397.96	1.327
398.65	1.26
