Uv/Vis Spectrum: 4'-Methylpropiophenone
Formula: C10H12O
CAS: 5337-93-9
Boiling point: 238-240/ 760 mm
Instrument: Beckman DU
Origin: INSTITUTE OF ENERGY PROBLEMS OF CHEMICAL PHYSICS, RAS
Wavelength (nm)	Logarithm epsilon
202.03	4.325
202.71	4.328
202.88	4.328
203.39	4.332
203.56	4.332
206.1	4.318
207.12	4.304
208.14	4.277
209.15	4.213
210.17	4.175
211.19	4.135
212.2	4.097
213.22	4.033
214.24	3.87
215.25	3.666
216.27	3.5
217.29	3.432
218.31	3.388
219.32	3.354
220.34	3.33
221.36	3.317
222.37	3.317
223.39	3.324
225.42	3.371
226.44	3.405
227.46	3.453
228.48	3.5
229.49	3.565
230.51	3.636
231.53	3.697
232.54	3.761
233.56	3.809
234.58	3.846
235.59	3.894
236.61	3.931
237.63	3.965
238.64	3.999
239.66	4.03
240.68	4.06
241.7	4.087
242.71	4.104
243.73	4.121
244.75	4.135
245.76	4.152
246.78	4.165
247.8	4.169
248.81	4.172
249.83	4.169
250.85	4.155
251.87	4.141
252.88	4.121
253.9	4.087
254.92	4.05
255.93	4.006
256.95	3.951
257.97	3.88
258.98	3.775
260	3.673
261.02	3.561
262.03	3.446
263.05	3.364
264.07	3.286
265.09	3.212
266.1	3.154
267.12	3.09
268.14	3.045
269.15	3.008
270.17	2.978
271.19	2.957
272.2	2.944
273.22	2.93
274.24	2.93
277.97	2.927
278.14	2.923
278.31	2.923
278.48	2.923
278.65	2.92
278.81	2.92
278.98	2.916
279.49	2.906
280	2.9
280.51	2.883
281.02	2.869
281.53	2.855
282.04	2.838
282.54	2.825
283.05	2.815
283.56	2.794
284.07	2.771
284.58	2.754
285.09	2.737
285.59	2.73
286.1	2.733
286.61	2.733
287.12	2.74
287.63	2.747
288.14	2.747
288.65	2.74
289.15	2.723
289.66	2.652
290.17	2.564
290.68	2.475
291.19	2.377
291.7	2.309
292.2	2.245
292.71	2.184
293.22	2.129
293.73	2.051
294.24	1.997
294.75	1.956
295.26	1.909
295.76	1.871
296.27	1.827
296.78	1.79
297.29	1.756
297.8	1.736
298.31	1.715
298.82	1.712
300.51	1.695
302.04	1.702
303.39	1.715
304.75	1.729
305.93	1.746
307.29	1.756
308.65	1.766
310	1.776
311.53	1.783
313.05	1.783
314.58	1.787
316.1	1.79
317.63	1.793
319.15	1.793
320.68	1.793
322.21	1.79
323.73	1.783
325.26	1.776
326.61	1.759
327.97	1.746
329.49	1.739
330.85	1.725
332.21	1.712
333.73	1.702
335.09	1.685
336.27	1.668
337.46	1.651
338.48	1.63
339.49	1.61
340.51	1.59
341.53	1.569
342.38	1.546
343.22	1.522
344.07	1.498
344.75	1.471
345.77	1.447
346.61	1.423
347.46	1.4
348.48	1.376
349.32	1.352
350.17	1.328
351.02	1.305
351.87	1.278
352.71	1.254
353.39	1.227
354.07	1.199
354.75	1.172
355.43	1.145
355.93	1.118
356.44	1.091
356.95	1.06
357.46	1.03
357.97	1.003
358.48	0.972
358.99	0.945
359.32	0.914
