Uv/Vis Spectrum: N-(4-nitrophenyl)-2-thiophenesulfonamide
Formula: C10H8N2S2
CAS: 53442-39-0
Melting point: 165
Instrument: Perkin-Elmer-Hitachi EPS-3T
Origin: INSTITUTE OF ENERGY PROBLEMS OF CHEMICAL PHYSICS, RAS
Wavelength (nm)	Logarithm epsilon
212	3.943
213	3.956
214	3.967
215	3.979
216	3.989
217	4
218	4.01
219	4.021
220	4.031
221	4.04
222	4.05
223	4.059
224	4.067
225	4.075
226	4.082
227	4.087
228	4.092
229	4.095
230	4.097
231	4.098
232	4.097
233	4.094
234	4.09
235	4.085
236	4.078
237	4.07
238	4.061
239	4.052
240	4.041
241	4.03
241.373	4.026
242.373	4.015
243.373	4.002
244.373	3.989
245.373	3.976
246.373	3.964
247.373	3.954
248.373	3.946
249.373	3.939
250.373	3.934
251.373	3.929
252.373	3.923
254.207	3.91
255.207	3.904
256.207	3.898
257.207	3.892
259.105	3.885
260.105	3.875
261.105	3.865
262.105	3.855
263.105	3.846
264.105	3.836
265.105	3.826
266.105	3.816
267.028	3.808
268.028	3.796
269.028	3.784
270.028	3.772
271.028	3.761
272.028	3.752
273.028	3.744
274.028	3.739
275.028	3.735
276.028	3.733
277.028	3.734
278.028	3.736
279.028	3.74
280.028	3.747
281.028	3.754
282.028	3.763
283.028	3.773
284.028	3.784
285.028	3.795
286.028	3.806
287.028	3.818
288.028	3.829
289.028	3.84
290.028	3.85
290.081	3.852
291.081	3.863
292.081	3.873
293.081	3.884
294.081	3.894
295.081	3.904
296.081	3.914
297.081	3.923
298.081	3.932
299.081	3.941
300.081	3.949
301.081	3.957
302.081	3.964
303.081	3.971
304.081	3.977
305.081	3.983
306.081	3.988
307.081	3.993
308.081	3.997
309.081	4
310.081	4.002
311.081	4.004
312.081	4.005
313.081	4.006
314.081	4.005
315.081	4.004
316.081	4.002
317.081	4
318.081	3.997
319.081	3.993
320.081	3.988
321.081	3.982
322.081	3.976
323.081	3.97
324.081	3.962
325.081	3.954
326.081	3.946
327.081	3.937
328.081	3.927
329.081	3.917
330.081	3.907
331.081	3.896
332.081	3.886
333.081	3.875
333.211	3.871
334.211	3.863
335.211	3.853
336.211	3.843
337.211	3.831
338.211	3.819
339.211	3.807
340.211	3.794
341.211	3.782
342.211	3.77
343.211	3.758
344.211	3.746
345.211	3.735
346.211	3.725
347.211	3.714
348.211	3.705
349.211	3.696
350.211	3.687
351.211	3.679
352.211	3.672
353.211	3.665
354.211	3.658
355.211	3.652
356.211	3.646
357.211	3.641
358.211	3.636
359.211	3.632
360.211	3.628
361.211	3.624
362.211	3.621
363.211	3.618
364.211	3.615
365.211	3.613
366.211	3.611
367.211	3.609
368.211	3.608
369.211	3.607
370.211	3.606
371.211	3.606
372.211	3.605
373.211	3.605
374.211	3.605
375.211	3.605
375.225	3.605
376.225	3.605
377.225	3.604
378.225	3.604
379.225	3.604
380.225	3.603
381.225	3.603
382.225	3.602
383.225	3.601
384.225	3.6
385.225	3.598
386.225	3.597
387.225	3.595
388.225	3.592
389.225	3.59
390.225	3.587
391.225	3.583
392.225	3.58
393.225	3.576
394.225	3.571
395.225	3.567
396.225	3.561
397.225	3.556
398.225	3.55
399.225	3.543
400.225	3.536
401.225	3.529
402.225	3.521
403.225	3.513
404.225	3.504
405.225	3.495
406.225	3.486
407.225	3.475
408.225	3.465
409.225	3.454
410.225	3.442
411.225	3.43
412.225	3.418
413.225	3.405
414.225	3.392
415.225	3.378
416.225	3.364
417.225	3.349
418.225	3.334
419.225	3.318
420.225	3.302
421.225	3.286
422.225	3.269
423.225	3.252
424.225	3.234
425.225	3.216
426.225	3.197
427.225	3.179
427.651	3.171
428.651	3.151
429.651	3.131
430.651	3.111
431.651	3.091
432.651	3.07
433.651	3.05
434.651	3.029
435.651	3.008
436.651	2.986
437.651	2.965
438.651	2.943
439.651	2.921
440.651	2.899
441.651	2.876
442.651	2.854
443.651	2.831
444.651	2.809
445.651	2.786
446.651	2.764
447.651	2.743
448.844	2.718
