Uv/Vis Spectrum: 2-Aminobenzyl alcohol
Formula: C7H9NO
CAS: 5344-90-1
Melting point: 82
Instrument: Beckman Model DU
Origin: INSTITUTE OF ENERGY PROBLEMS OF CHEMICAL PHYSICS, RAS
Wavelength (nm)	Logarithm epsilon
212.9	3.701
213.41	3.67
213.75	3.64
214.09	3.609
214.77	3.582
215.45	3.555
216.46	3.531
217.48	3.507
219.01	3.5
220.54	3.504
221.9	3.521
222.91	3.541
223.93	3.562
224.95	3.582
225.97	3.602
226.99	3.623
228.18	3.643
229.19	3.663
230.38	3.684
231.57	3.704
232.76	3.725
233.95	3.745
235.3	3.762
236.49	3.779
238.02	3.779
239.38	3.765
240.74	3.748
242.09	3.731
243.28	3.711
244.3	3.687
245.32	3.663
246.17	3.64
247.02	3.616
247.69	3.589
248.54	3.562
249.05	3.534
249.73	3.507
250.41	3.48
250.92	3.453
251.6	3.426
252.11	3.398
252.62	3.368
253.13	3.341
253.46	3.31
253.97	3.283
254.31	3.252
254.82	3.225
255.33	3.198
255.67	3.167
256.18	3.14
256.52	3.109
257.03	3.079
257.2	3.048
257.37	3.018
257.71	2.987
258.05	2.956
258.39	2.926
258.9	2.899
259.41	2.871
259.91	2.844
260.42	2.817
260.93	2.79
261.61	2.763
262.46	2.739
263.82	2.722
265.18	2.739
266.19	2.763
267.21	2.786
268.06	2.814
268.74	2.841
269.59	2.865
270.44	2.888
271.29	2.912
272.14	2.939
272.98	2.963
273.83	2.99
274.85	3.014
275.87	3.038
276.72	3.062
277.74	3.082
278.75	3.106
279.77	3.126
280.79	3.147
281.98	3.164
283.17	3.181
284.53	3.198
285.88	3.211
287.41	3.215
288.94	3.222
290.47	3.218
291.99	3.211
293.35	3.194
294.54	3.177
295.73	3.157
296.58	3.133
297.59	3.113
298.44	3.089
299.29	3.065
300.14	3.041
300.99	3.014
301.67	2.987
302.52	2.96
303.2	2.933
303.87	2.905
304.55	2.878
305.06	2.851
305.74	2.824
306.25	2.797
306.76	2.769
307.27	2.742
307.78	2.715
308.29	2.688
308.8	2.657
309.31	2.63
309.82	2.6
310.15	2.569
310.66	2.538
311	2.508
311.51	2.481
311.85	2.45
312.19	2.419
312.53	2.389
313.04	2.358
313.21	2.328
313.55	2.297
313.89	2.266
314.23	2.236
314.57	2.205
314.91	2.175
315.08	2.144
315.59	2.113
315.76	2.083
316.1	2.052
316.43	2.022
316.6	1.991
316.94	1.96
