Uv/Vis Spectrum: 3,5-Xylenol, 4-nitro-,
Formula: C8H9NO3
CAS: 5344-97-8
Instrument: n.i.g.
Origin: INSTITUTE OF ENERGY PROBLEMS OF CHEMICAL PHYSICS, RAS
Wavelength (nm)	Logarithm epsilon
240	3.62
241	3.59
242	3.57
243	3.55
244	3.53
245	3.52
246	3.51
247	3.51
248	3.51
249	3.51
250	3.52
251	3.52
252	3.52
253	3.52
254	3.52
255	3.52
256	3.52
257	3.52
258	3.52
259	3.53
260	3.53
261	3.53
262	3.53
263	3.53
264	3.53
265	3.53
266	3.52
267	3.52
268	3.52
269	3.52
270	3.5
271	3.49
272	3.47
273	3.46
274	3.45
275	3.43
276	3.42
277	3.4
278	3.39
279	3.38
280	3.36
281	3.36
282	3.35
283	3.34
284	3.34
285	3.34
286	3.34
287	3.34
288	3.34
289	3.34
290	3.34
291	3.34
292	3.34
293	3.34
294	3.34
295	3.34
296	3.34
297	3.34
298	3.34
299	3.34
300	3.34
301	3.33
302	3.33
303	3.33
304	3.33
305	3.33
306	3.33
307	3.33
308	3.33
309	3.33
310	3.33
311	3.34
312	3.34
313	3.34
314	3.34
315	3.35
316	3.35
317	3.35
318	3.35
319	3.36
320	3.36
321	3.36
322	3.36
323	3.37
324	3.37
325	3.37
326	3.37
327	3.38
328	3.38
329	3.38
330	3.38
331	3.39
332	3.39
333	3.39
334	3.39
335	3.4
336	3.4
337	3.4
338	3.4
339	3.41
340	3.41
341	3.41
342	3.42
343	3.43
344	3.44
345	3.45
346	3.46
347	3.47
348	3.47
349	3.48
350	3.49
351	3.5
352	3.51
353	3.52
354	3.53
355	3.54
356	3.55
357	3.55
358	3.56
359	3.57
360	3.58
361	3.59
362	3.6
363	3.61
364	3.62
365	3.63
366	3.64
367	3.65
368	3.65
369	3.66
370	3.67
371	3.68
372	3.69
373	3.7
374	3.71
375	3.71
376	3.72
377	3.73
378	3.74
379	3.74
380	3.75
381	3.75
382	3.75
383	3.75
384	3.76
385	3.76
386	3.76
387	3.76
388	3.77
389	3.77
390	3.77
391	3.77
392	3.78
393	3.78
394	3.78
395	3.79
396	3.79
397	3.79
398	3.79
399	3.8
400	3.8
401	3.8
402	3.8
403	3.81
404	3.81
405	3.81
406	3.82
407	3.82
408	3.82
409	3.81
410	3.8
411	3.8
412	3.79
413	3.78
414	3.77
415	3.76
416	3.75
417	3.74
418	3.73
419	3.72
420	3.71
421	3.7
422	3.69
423	3.68
424	3.67
425	3.66
426	3.65
427	3.64
428	3.63
429	3.63
430	3.62
431	3.61
432	3.6
433	3.59
434	3.58
435	3.57
436	3.56
437	3.55
438	3.54
439	3.53
