Uv/Vis Spectrum: Furan, 2-methyl-
Formula: C5H6O
CAS: 534-22-5
Melting point: -87.5
Boiling point: 65
Instrument: n.i.g.
Origin: INSTITUTE OF ENERGY PROBLEMS OF CHEMICAL PHYSICS, RAS
Wavelength (nm)	Logarithm epsilon
215.338	3.8675
215.989	3.86653
216.538	3.8647
217.004	3.86214
217.404	3.85902
217.756	3.85549
218.08	3.85169
218.394	3.84778
218.394	3.84778
218.754	3.84182
219.087	3.83595
219.374	3.83078
219.598	3.82696
219.74	3.82512
219.74	3.82512
219.905	3.82148
220.067	3.81779
220.227	3.81407
220.384	3.81032
220.512	3.81529
220.512	3.81566
220.512	3.81602
220.512	3.81636
220.538	3.80652
220.667	3.80581
220.69	3.80268
220.742	3.80581
220.779	3.80658
220.816	3.80394
220.817	3.80652
220.819	3.80581
220.839	3.79881
220.844	3.80459
220.857	3.80643
220.872	3.80521
220.901	3.80581
220.901	3.80581
220.901	3.80632
220.986	3.79489
221.131	3.79094
221.274	3.78694
221.414	3.7829
221.553	3.77882
221.689	3.77469
221.823	3.77052
221.956	3.76631
222.087	3.76204
222.215	3.75773
222.342	3.75338
222.468	3.74898
222.592	3.74452
222.714	3.74002
222.835	3.73547
222.955	3.73086
223.073	3.7262
223.19	3.72149
223.306	3.71672
223.42	3.71189
223.534	3.70701
223.647	3.70207
223.758	3.69707
223.869	3.69201
223.979	3.68689
224.088	3.6817
224.196	3.67645
224.304	3.67113
224.412	3.66574
224.519	3.66028
224.625	3.65476
224.731	3.64915
224.837	3.64348
224.942	3.63773
225.048	3.6319
225.153	3.62599
225.258	3.62
225.364	3.61392
225.469	3.60776
225.575	3.60151
225.68	3.59517
225.786	3.58873
225.893	3.5822
225.999	3.57557
226.107	3.56884
226.214	3.562
226.323	3.55505
226.432	3.548
226.542	3.54083
226.652	3.53354
226.764	3.52613
226.876	3.51859
226.989	3.51093
227.104	3.50313
227.219	3.49519
227.219	3.49519
227.359	3.48709
227.499	3.47884
227.64	3.47043
227.781	3.46184
227.923	3.45308
228.065	3.44414
228.208	3.43501
228.351	3.42568
228.494	3.41614
228.639	3.40638
228.783	3.3964
228.928	3.38618
229.074	3.37571
229.22	3.36497
229.367	3.35396
229.514	3.34266
229.661	3.33106
229.809	3.31913
229.958	3.30687
230.107	3.29424
230.257	3.28123
230.407	3.26781
230.558	3.25396
230.709	3.23965
230.861	3.22485
231.013	3.20951
231.166	3.19362
231.32	3.17711
231.474	3.15994
231.628	3.14206
231.784	3.12341
231.939	3.10391
232.095	3.08349
232.095	3.08349
232.482	3.06465
232.878	3.03815
233.269	3.00828
233.64	2.9805
233.64	2.9805
234.113	2.95731
234.579	2.93477
235.047	2.91263
235.524	2.89055
236.017	2.86813
236.533	2.84485
237.081	2.8201
237.667	2.79312
237.667	2.79312
238.735	2.75885
239.57	2.7319
240.183	2.71181
240.581	2.69749
240.775	2.68738
240.775	2.68738
241.343	2.67429
241.912	2.66116
242.482	2.64799
243.053	2.63478
243.625	2.62153
244.197	2.60823
244.771	2.59489
245.346	2.5815
245.922	2.56806
246.498	2.55456
247.075	2.541
247.654	2.52738
248.232	2.51369
248.812	2.49992
249.392	2.48607
249.973	2.47213
250.554	2.45808
251.136	2.44393
251.719	2.42965
252.302	2.41523
252.886	2.40066
253.47	2.38593
254.054	2.37101
254.639	2.35588
255.224	2.34052
255.809	2.3249
256.395	2.309
256.981	2.29277
257.567	2.2762
258.154	2.25923
258.74	2.24181
259.327	2.2239
259.914	2.20543
260.501	2.18633
261.088	2.16654
261.674	2.14595
