Uv/Vis Spectrum: N-(3-nitrophenyl)-2-thiophenesulfonamide
Formula: C10H8N2O4S2
CAS: 53442-38-9
Melting point: 162-163
Instrument: Perkin-Elmer-Hitachi EPS-3T
Origin: INSTITUTE OF ENERGY PROBLEMS OF CHEMICAL PHYSICS, RAS
Wavelength (nm)	Logarithm epsilon
210.174	4.031
211.174	4.051
212.174	4.071
213.174	4.091
214.174	4.11
215.174	4.128
216.174	4.145
217.174	4.16
218.174	4.174
219.174	4.186
220.174	4.197
221.174	4.207
222.174	4.215
223.174	4.221
224.174	4.227
225.174	4.231
226.174	4.234
227.174	4.236
228.174	4.238
229.174	4.238
230.174	4.238
231.174	4.238
232.174	4.237
233.174	4.235
234.174	4.233
235.174	4.231
236.174	4.229
237.174	4.226
238.174	4.223
239.174	4.22
240.174	4.217
241.174	4.213
242.174	4.21
243.174	4.206
244.174	4.201
245.174	4.197
246.174	4.192
247.174	4.186
248.174	4.181
249.174	4.175
250.174	4.17
250.83	4.165
251.83	4.161
252.83	4.158
253.83	4.156
254.83	4.155
255.83	4.154
256.83	4.153
257.83	4.152
258.83	4.15
259.83	4.147
260.83	4.143
261.83	4.138
262.83	4.131
263.83	4.123
264.83	4.114
265.83	4.104
266.83	4.092
267.83	4.079
268.83	4.064
269.83	4.048
270.83	4.031
271.83	4.013
272.83	3.994
273.83	3.973
274.83	3.951
275.83	3.929
276.83	3.905
277.83	3.88
278.83	3.855
279.83	3.828
280.83	3.801
281.83	3.773
282.83	3.745
283.83	3.716
284.83	3.687
285.83	3.657
286.83	3.628
287.83	3.599
288.83	3.57
289.036	3.559
290.036	3.537
291.036	3.514
292.036	3.489
293.036	3.464
294.036	3.44
295.036	3.416
296.036	3.393
297.036	3.371
298.036	3.351
299.036	3.333
300.036	3.317
301.036	3.302
302.036	3.289
303.036	3.277
304.036	3.267
305.036	3.259
306.036	3.251
307.036	3.244
308.036	3.239
309.036	3.234
310.036	3.229
311.036	3.225
312.036	3.222
313.036	3.218
314.036	3.215
315.036	3.212
316.036	3.209
317.036	3.205
318.036	3.202
319.036	3.199
320.036	3.195
321.036	3.192
322.036	3.188
323.036	3.185
324.036	3.181
325.036	3.178
326.036	3.174
327.036	3.171
328.036	3.168
329.036	3.164
330.036	3.16
331.036	3.155
332.036	3.15
333.036	3.143
333.61	3.138
334.61	3.131
335.61	3.123
336.61	3.116
337.61	3.108
338.61	3.1
339.61	3.091
340.61	3.083
341.61	3.074
342.61	3.064
343.61	3.054
344.61	3.044
345.61	3.033
346.61	3.022
347.61	3.01
348.61	2.997
349.61	2.984
350.61	2.971
351.61	2.957
352.61	2.942
353.61	2.926
354.61	2.91
355.61	2.894
356.61	2.877
357.61	2.859
358.61	2.84
359.61	2.821
360.61	2.8
361.61	2.779
362.61	2.757
363.61	2.734
364.61	2.709
365.61	2.684
