Uv/Vis Spectrum: N-3-pyridinyl-2-thiophenesulfonamide
Formula: C9H8N2O2S2
CAS: 53442-50-5
Melting point: 188-189
Instrument: Perkin-Elmer-Hitachi EPS-3T
Origin: INSTITUTE OF ENERGY PROBLEMS OF CHEMICAL PHYSICS, RAS
Wavelength (nm)	Logarithm epsilon
210.246	3.866
211.246	3.856
212.246	3.851
213.246	3.851
214.246	3.855
215.246	3.862
216.246	3.871
217.246	3.882
218.246	3.893
219.246	3.906
220.246	3.918
221.246	3.93
222.246	3.942
223.246	3.954
224.246	3.964
225.246	3.975
226.246	3.984
227.246	3.993
228.246	4.001
229.246	4.008
230.246	4.015
231.246	4.022
232.246	4.028
233.246	4.034
234.246	4.039
235.246	4.045
236.246	4.05
237.246	4.055
238.246	4.061
239.246	4.066
240.246	4.071
241.088	4.074
242.088	4.08
243.088	4.084
244.088	4.086
245.088	4.088
246.088	4.089
247.088	4.09
248.088	4.09
249.088	4.089
250.088	4.088
251.088	4.086
252.088	4.084
253.088	4.08
254.088	4.075
255.088	4.069
256.088	4.061
257.088	4.051
258.088	4.04
259.088	4.027
260.088	4.012
261.088	3.996
262.088	3.979
263.088	3.96
264.088	3.94
265.088	3.92
266.088	3.899
267.088	3.879
268.088	3.858
269.088	3.839
270.088	3.82
271.088	3.802
272.088	3.786
273.088	3.772
274.088	3.758
275.088	3.746
276.088	3.734
277.088	3.722
277.1	3.723
278.1	3.705
279.1	3.689
280.1	3.673
281.1	3.658
282.1	3.642
283.1	3.625
284.1	3.608
285.1	3.59
286.1	3.571
287.1	3.552
288.1	3.531
289.1	3.51
290.1	3.488
291.1	3.466
292.1	3.444
293.1	3.422
294.1	3.4
295.1	3.379
296.1	3.358
297.1	3.338
298.1	3.319
299.1	3.302
300.1	3.285
300.99	3.272
301.99	3.257
302.99	3.243
303.99	3.228
304.99	3.214
305.99	3.2
306.99	3.185
307.99	3.17
308.99	3.154
309.99	3.138
310.99	3.121
311.99	3.102
312.99	3.083
313.99	3.062
314.99	3.04
315.99	3.015
316.99	2.989
317.99	2.96
318.99	2.929
319.99	2.894
320.99	2.856
321.99	2.815
322.99	2.769
323.809	2.725
