Uv/Vis Spectrum: 1,3-bis(4-methoxyphenyl)-5-(4-nitrophenyl)formazan
Formula: C21H19N5O4
CAS: 53451-83-5
Instrument: SF-4M
Origin: INSTITUTE OF ENERGY PROBLEMS OF CHEMICAL PHYSICS, RAS
Wavelength (nm)	Logarithm epsilon
248.81	3.981
249.81	3.984
250.81	3.988
251.81	3.992
252.81	3.995
253.81	3.998
254.81	3.999
255.81	4
256.81	3.999
257.81	3.998
258.81	3.995
259.81	3.991
260.81	3.985
261.81	3.979
262.81	3.971
263.81	3.962
264.81	3.952
265.81	3.942
266.81	3.93
267.81	3.918
268.81	3.906
269.81	3.893
270.81	3.881
271.81	3.868
272.81	3.855
273.81	3.843
274.81	3.832
275.81	3.821
276.81	3.812
277.81	3.803
278.81	3.796
279.81	3.79
280.81	3.786
281.81	3.783
282.81	3.783
283.81	3.784
283.98	3.783
284.98	3.79
285.98	3.797
286.98	3.798
287.98	3.794
288.98	3.784
289.98	3.772
290.12	3.771
291.12	3.753
292.12	3.749
293.12	3.753
294.12	3.76
295.12	3.767
296.12	3.772
297.12	3.773
298.12	3.77
299.12	3.765
300.12	3.757
301.12	3.748
302.12	3.74
303.12	3.734
304.12	3.73
305.12	3.73
305.751	3.735
306.751	3.736
307.751	3.736
308.751	3.738
309.751	3.74
310.751	3.742
311.751	3.746
312.751	3.749
313.751	3.754
314.751	3.759
315.751	3.764
316.751	3.769
317.751	3.775
318.751	3.781
319.751	3.788
320.751	3.794
321.751	3.801
322.751	3.808
323.751	3.815
324.751	3.821
325.751	3.828
326.751	3.834
327.751	3.841
328.751	3.847
329.751	3.853
330.751	3.859
331.751	3.865
332.751	3.871
333.751	3.876
334.751	3.881
335.751	3.886
336.751	3.891
337.751	3.896
338.751	3.901
339.751	3.905
340.751	3.91
341.751	3.914
342.751	3.919
343.751	3.923
344.751	3.927
345.751	3.932
346.751	3.936
347.751	3.94
348.751	3.945
349.751	3.949
350.751	3.953
351.751	3.957
352.751	3.961
353.751	3.965
354.751	3.969
355.751	3.973
356.751	3.976
357.751	3.98
358.751	3.983
359.751	3.985
360.751	3.987
361.751	3.988
362.751	3.989
363.751	3.99
364.751	3.989
365.751	3.988
366.751	3.986
367.751	3.983
368.751	3.979
369.751	3.975
370.751	3.969
371.751	3.963
372.751	3.956
373.751	3.949
373.994	3.946
374.994	3.94
375.994	3.933
376.994	3.927
377.994	3.919
378.994	3.912
379.994	3.904
380.994	3.896
381.994	3.887
382.994	3.878
383.994	3.868
384.994	3.858
385.994	3.848
386.994	3.837
387.994	3.826
388.994	3.815
389.994	3.803
390.994	3.791
391.994	3.778
392.994	3.765
393.994	3.751
394.994	3.737
395.994	3.723
396.187	3.718
397.187	3.705
398.187	3.69
399.187	3.674
400.187	3.659
401.187	3.643
402.187	3.626
403.187	3.61
404.187	3.594
405.187	3.578
406.187	3.562
407.187	3.547
408.187	3.533
409.187	3.519
410.187	3.506
411.187	3.494
412.187	3.483
413.187	3.473
414.187	3.464
415.187	3.456
416.187	3.449
417.187	3.443
418.187	3.438
419.187	3.435
420.187	3.432
421.187	3.431
422.187	3.431
423.187	3.432
424.187	3.434
425.187	3.436
426.187	3.44
427.187	3.445
428.187	3.45
429.187	3.456
430.187	3.462
431.187	3.469
432.187	3.477
433.187	3.485
434.187	3.493
435.187	3.501
436.187	3.51
437.187	3.519
438.187	3.527
439.187	3.535
440.187	3.544
441.187	3.552
442.187	3.56
443.187	3.567
444.187	3.574
445.187	3.581
446.187	3.588
447.187	3.594
447.545	3.6
448.545	3.603
449.545	3.608
450.545	3.613
451.545	3.619
452.545	3.626
453.545	3.634
454.545	3.642
455.545	3.651
456.545	3.659
457.545	3.668
458.545	3.677
459.545	3.686
460.545	3.695
461.545	3.703
462.545	3.712
463.545	3.72
464.545	3.729
465.545	3.737
466.545	3.744
467.545	3.752
468.545	3.759
469.545	3.766
470.545	3.773
471.545	3.78
472.545	3.786
473.545	3.792
474.545	3.798
475.545	3.804
476.545	3.809
477.545	3.814
478.545	3.819
479.545	3.824
480.545	3.829
481.545	3.833
482.545	3.838
483.545	3.842
484.545	3.846
485.545	3.85
486.545	3.854
487.545	3.857
488.545	3.861
489.545	3.864
490.545	3.867
491.545	3.87
492.545	3.873
493.545	3.876
494.545	3.878
495.545	3.881
496.545	3.883
497.545	3.885
498.545	3.887
499.545	3.888
500.545	3.89
501.545	3.891
502.545	3.892
503.545	3.892
504.545	3.893
505.545	3.893
506.545	3.893
507.545	3.893
508.545	3.893
509.545	3.893
510.545	3.892
511.545	3.891
512.545	3.89
513.545	3.889
514.545	3.887
515.545	3.885
516.545	3.884
517.545	3.882
518.545	3.88
519.545	3.878
520.545	3.876
521.545	3.873
522.545	3.871
523.545	3.869
524.545	3.866
525.545	3.864
526.545	3.862
527.545	3.86
528.545	3.858
529.545	3.856
530.545	3.854
531.545	3.852
532.545	3.85
533.545	3.848
534.545	3.847
535.545	3.845
536.545	3.843
537.545	3.842
538.545	3.84
539.545	3.838
540.545	3.836
541.545	3.834
542.545	3.831
543.545	3.827
544.545	3.823
545.904	3.823
546.354	3.823
547.354	3.821
548.354	3.818
549.354	3.815
550.354	3.812
551.354	3.808
552.354	3.804
553.354	3.8
554.354	3.795
555.354	3.79
556.354	3.783
557.354	3.777
558.354	3.769
559.354	3.761
560.354	3.752
561.354	3.743
562.354	3.733
563.354	3.722
564.354	3.71
565.354	3.697
566.354	3.684
567.354	3.67
568.354	3.655
569.354	3.64
570.354	3.623
571.354	3.606
572.354	3.589
573.354	3.571
574.354	3.552
575.354	3.533
576.354	3.514
577.354	3.494
578.354	3.473
579.354	3.453
580.354	3.432
581.354	3.411
582.354	3.391
583.354	3.37
584.354	3.349
585.354	3.329
586.354	3.31
587.354	3.29
587.387	3.292
588.387	3.274
589.387	3.256
590.387	3.238
591.387	3.22
592.387	3.202
593.387	3.184
594.387	3.166
595.387	3.149
