Uv/Vis Spectrum: N-[2-(1-methylethyl)phenyl]-2-thiophenesulfonamide
Formula: C13H15NO2S2
CAS: 53442-42-5
Melting point: 124
Instrument: Perkin-Elmer-Hitachi EPS-3T
Origin: INSTITUTE OF ENERGY PROBLEMS OF CHEMICAL PHYSICS, RAS
Wavelength (nm)	Logarithm epsilon
209.677	4.073
212.177	4.045
214.677	4.016
217.177	3.987
219.677	3.963
222.177	3.945
224.677	3.933
227.177	3.927
229.677	3.925
232.177	3.925
234.677	3.927
237.19	3.933
239.69	3.94
242.19	3.941
244.69	3.937
247.19	3.928
249.69	3.917
252.19	3.903
254.69	3.888
257.19	3.868
259.69	3.841
262.134	3.803
264.634	3.756
267.134	3.676
269.634	3.579
272.134	3.459
274.634	3.307
276.774	3.15
279.34	2.959
