Uv/Vis Spectrum: N-4-pyridinyl-2-thiophenesulfonamide
Formula: C9H8N2O2S2
CAS: 53442-51-6
Melting point: 300
Instrument: Perkin-Elmer-Hitachi EPS-3T
Origin: INSTITUTE OF ENERGY PROBLEMS OF CHEMICAL PHYSICS, RAS
Wavelength (nm)	Logarithm epsilon
210.778	4.095
212.278	4.082
213.778	4.074
215.278	4.067
216.778	4.06
218.278	4.051
219.778	4.041
221.278	4.03
222.778	4.017
224.278	4.006
225.778	3.995
227.278	3.987
228.778	3.981
230.278	3.979
231.778	3.981
233.278	3.986
234.778	3.993
236.278	4.003
237.778	4.014
239.278	4.025
240.778	4.036
242.278	4.045
243.778	4.054
245.278	4.062
246.778	4.072
248.029	4.073
249.529	4.082
251.029	4.085
252.529	4.081
254.029	4.074
255.529	4.064
257.029	4.051
258.529	4.038
260.029	4.025
261.529	4.012
263.029	4
264.529	3.991
266.029	3.983
267.529	3.977
269.029	3.974
270.529	3.974
272.029	3.976
273.529	3.98
275.029	3.987
275.04	3.986
276.54	3.998
278.04	4.013
279.54	4.029
281.04	4.047
282.54	4.067
284.04	4.088
285.54	4.109
287.04	4.13
288.54	4.148
290.04	4.163
291.54	4.175
293.04	4.181
294.54	4.181
296.04	4.174
297.461	4.161
298.961	4.139
300.461	4.111
301.961	4.074
303.461	4.03
304.961	3.98
306.461	3.924
307.961	3.864
309.461	3.799
310.961	3.728
312.461	3.644
313.879	3.552
315.379	3.413
316.879	3.278
318.379	3.143
319.879	3.006
321.379	2.871
322.879	2.746
