Uv/Vis Spectrum: 1,3-Dichloro-2-propanone
Formula: C3H4Cl2O
CAS: 534-07-6
Melting point: 41-43
Instrument: Bausch and Lomb Spectronic 600
Origin: INSTITUTE OF ENERGY PROBLEMS OF CHEMICAL PHYSICS, RAS
Wavelength (nm)	Logarithm epsilon
210.2	1.058
210.36	1.058
210.52	1.058
210.99	1.026
211.79	0.978
212.59	0.921
213.39	0.858
214.18	0.802
214.98	0.743
215.78	0.692
216.57	0.627
217.37	0.551
218.17	0.485
218.96	0.429
219.76	0.387
220.56	0.364
221.35	0.328
222.15	0.315
225.65	0.244
228.04	0.212
228.84	0.195
232.03	0.14
236.81	0.12
237.61	0.12
242.39	0.14
243.18	0.14
247.17	0.159
254.18	0.228
255.13	0.244
256.09	0.259
257.05	0.274
258.96	0.301
261.83	0.328
263.74	0.352
266.61	0.387
267.56	0.398
268.52	0.408
269.47	0.419
270.43	0.439
273.3	0.458
274.26	0.467
275.21	0.476
276.17	0.485
278.08	0.494
280.95	0.527
281.9	0.535
282.86	0.543
286.68	0.566
287.64	0.573
289.55	0.587
293.38	0.601
296.25	0.594
298.16	0.587
299.11	0.587
301.03	0.573
301.98	0.566
304.85	0.551
305.81	0.535
307.72	0.502
308.67	0.485
309.63	0.476
310.59	0.458
312.5	0.429
313.45	0.419
314.41	0.398
316.32	0.364
317.28	0.328
320.15	0.274
321.1	0.244
323.02	0.212
323.97	0.195
324.93	0.14
325.88	0.099
326.84	0.077
327.8	0.03
328.75	0.004
329.71	-0.053
330.66	-0.119
331.62	-0.156
