Uv/Vis Spectrum: N-(2-nitrophenyl)-2-thiophenesulfonamide
Formula: C10H8N2O4S2
CAS: 53442-37-8
Melting point: 104-105
Instrument: Perkin-Elmer-Hitachi EPS-3T
Origin: INSTITUTE OF ENERGY PROBLEMS OF CHEMICAL PHYSICS, RAS
Wavelength (nm)	Logarithm epsilon
208.853	4.121
209.064	4.123
209.178	4.123
210.178	4.129
211.178	4.137
212.178	4.147
213.178	4.157
214.178	4.168
215.178	4.179
216.178	4.19
217.178	4.2
218.178	4.208
219.178	4.215
220.178	4.221
221.178	4.224
222.178	4.226
223.178	4.226
224.178	4.225
225.178	4.222
226.178	4.218
227.178	4.213
228.178	4.208
229.178	4.203
230.178	4.198
231.178	4.193
232.178	4.19
233.178	4.187
234.178	4.186
235.178	4.185
236.178	4.186
237.178	4.187
238.178	4.188
239.75	4.185
240.75	4.186
241.75	4.185
242.75	4.183
243.75	4.179
244.75	4.174
245.75	4.168
246.75	4.162
247.75	4.156
248.75	4.15
249.75	4.144
250.75	4.138
251.75	4.132
252.75	4.125
253.75	4.118
254.75	4.111
255.75	4.103
256.75	4.095
257.75	4.086
258.75	4.077
259.75	4.067
260.75	4.057
261.75	4.046
262.75	4.035
263.75	4.024
264.75	4.013
265.75	4.001
266.75	3.99
267.75	3.978
268.75	3.967
269.75	3.956
270.75	3.945
271.75	3.934
272.75	3.922
273.75	3.91
274.75	3.897
275.75	3.882
276.75	3.864
277.095	3.857
278.095	3.836
279.095	3.818
280.095	3.8
281.095	3.783
282.095	3.766
283.095	3.748
284.095	3.73
285.095	3.711
286.095	3.692
287.095	3.672
288.095	3.651
289.095	3.631
290.095	3.61
291.095	3.589
292.095	3.569
293.095	3.549
294.095	3.529
295.095	3.511
296.095	3.493
297.095	3.477
298.095	3.462
299.095	3.449
300.095	3.436
301.095	3.425
302.095	3.416
303.095	3.407
304.095	3.4
305.095	3.393
306.095	3.388
307.095	3.384
308.095	3.38
309.095	3.376
310.095	3.374
311.095	3.371
311.866	3.369
312.866	3.369
313.866	3.369
314.866	3.37
315.866	3.371
316.866	3.373
317.866	3.375
318.866	3.377
319.866	3.379
320.866	3.381
321.866	3.384
322.866	3.386
323.866	3.389
324.866	3.392
325.866	3.394
326.866	3.397
327.866	3.4
328.866	3.402
329.866	3.404
330.866	3.407
331.866	3.409
332.866	3.411
333.866	3.412
334.866	3.414
335.866	3.415
336.866	3.416
337.866	3.417
338.866	3.418
339.866	3.418
340.866	3.418
341.866	3.418
342.866	3.417
343.866	3.417
344.866	3.416
345.866	3.415
346.866	3.413
347.866	3.411
348.866	3.409
349.866	3.407
350.866	3.404
351.866	3.401
352.866	3.398
353.866	3.394
354.866	3.39
355.866	3.386
356.866	3.382
357.866	3.377
358.866	3.371
359.866	3.366
360.866	3.36
361.866	3.353
361.91	3.35
362.91	3.348
363.91	3.344
364.91	3.34
365.91	3.335
366.91	3.329
367.91	3.322
368.91	3.315
369.91	3.308
370.91	3.3
371.91	3.291
372.91	3.282
373.91	3.273
374.91	3.263
375.91	3.253
376.91	3.243
377.91	3.233
378.91	3.223
379.91	3.212
380.91	3.202
381.91	3.192
382.91	3.181
383.91	3.171
384.91	3.161
385.91	3.15
386.91	3.14
387.91	3.13
388.91	3.119
389.91	3.109
390.91	3.098
391.91	3.088
392.131	3.086
393.131	3.075
394.131	3.065
395.131	3.054
396.131	3.045
397.131	3.035
398.131	3.025
399.131	3.015
400.131	3.005
401.131	2.995
402.131	2.985
403.131	2.975
404.131	2.965
405.131	2.954
406.131	2.944
407.131	2.934
408.131	2.924
409.131	2.915
410.131	2.905
411.131	2.895
412.131	2.885
413.131	2.876
414.131	2.865
415.131	2.855
416.131	2.843
