Uv/Vis Spectrum: N-(1-methyl-2-piperidinylidene)benzenamine
Formula: C12H16N2
CAS: 53582-81-3
Boiling point: 144-145/ 5 mm
Instrument: Hitachi EPS-3
Origin: INSTITUTE OF ENERGY PROBLEMS OF CHEMICAL PHYSICS, RAS
Wavelength (nm)	Logarithm epsilon
228.604	3.911
230.604	3.922
232.604	3.942
234.604	3.968
236.604	3.998
238.604	4.027
240.604	4.049
242.604	4.062
244.604	4.063
246.604	4.051
248.604	4.029
250.78	4.001
252.78	3.982
254.78	3.969
256.78	3.961
258.78	3.954
260.78	3.949
262.78	3.944
264.78	3.938
266.78	3.932
268.78	3.925
270.78	3.916
272.78	3.906
274.78	3.895
276.78	3.882
278.78	3.866
280.78	3.848
282.78	3.826
284.78	3.801
286.78	3.77
288.78	3.735
290.78	3.694
293.006	3.645
295.006	3.591
297.006	3.524
299.006	3.449
301.006	3.371
303.006	3.291
305.006	3.213
307.006	3.138
309.006	3.066
311.006	2.997
313.006	2.929
315.006	2.861
317.006	2.79
319.006	2.711
321.006	2.62
323.006	2.512
325.006	2.381
