Uv/Vis Spectrum: 1-Methyl-3-isopropylbenzene
Formula: C10H14
CAS: 535-77-3
Boiling point: 175.1
Instrument: unknown
Origin: INSTITUTE OF ENERGY PROBLEMS OF CHEMICAL PHYSICS, RAS
Wavelength (nm)	Logarithm epsilon
228.05	2.053
228.09	2.051
228.14	2.05
228.26	2.025
228.47	1.981
228.69	1.923
228.9	1.875
229.11	1.823
229.32	1.779
229.53	1.731
230.08	1.627
230.3	1.595
230.55	1.561
230.76	1.525
231.02	1.49
231.31	1.459
231.65	1.426
231.99	1.398
232.27	1.379
232.71	1.359
233.06	1.348
233.47	1.343
233.86	1.343
234.24	1.343
234.62	1.351
235.02	1.368
235.34	1.383
235.72	1.405
236.08	1.423
236.44	1.44
236.78	1.458
237.16	1.478
237.5	1.496
237.84	1.513
238.21	1.535
238.56	1.551
238.9	1.566
239.26	1.584
239.58	1.6
239.92	1.614
240.25	1.631
240.59	1.648
240.99	1.662
241.31	1.676
241.65	1.691
241.99	1.71
242.33	1.724
242.63	1.741
242.92	1.757
243.26	1.773
243.56	1.788
243.9	1.803
244.19	1.817
244.47	1.832
244.75	1.847
245.04	1.862
245.34	1.877
245.64	1.889
245.93	1.901
246.23	1.914
246.53	1.928
246.78	1.939
247.08	1.951
247.33	1.963
247.58	1.975
247.86	1.987
248.14	1.998
248.43	2.009
248.69	2.019
248.94	2.03
249.23	2.041
249.49	2.051
249.78	2.061
250.04	2.071
250.3	2.08
250.55	2.089
250.85	2.098
251.1	2.107
251.36	2.115
251.61	2.123
251.91	2.13
252.16	2.138
252.46	2.146
252.71	2.154
252.97	2.162
253.26	2.169
253.52	2.178
253.73	2.186
253.94	2.195
254.15	2.204
254.32	2.213
254.53	2.222
254.75	2.231
254.96	2.239
255.14	2.247
255.34	2.255
255.58	2.262
255.81	2.268
256.06	2.274
256.36	2.28
256.65	2.285
256.95	2.29
257.29	2.294
257.67	2.296
258.05	2.294
258.43	2.291
258.77	2.287
259.11	2.285
259.49	2.284
259.75	2.289
259.92	2.297
260.04	2.305
260.21	2.312
260.38	2.319
260.51	2.327
260.64	2.334
260.76	2.342
260.93	2.348
261.1	2.355
261.23	2.361
261.4	2.368
261.53	2.374
261.69	2.38
261.79	2.383
261.89	2.385
261.99	2.388
262.08	2.389
262.16	2.391
262.2	2.391
262.25	2.392
262.29	2.393
262.33	2.394
262.37	2.394
262.42	2.394
262.5	2.394
262.67	2.393
262.84	2.391
263.01	2.391
263.18	2.394
263.35	2.395
263.52	2.4
263.69	2.406
263.86	2.41
264.03	2.414
264.19	2.416
264.36	2.416
264.53	2.413
264.71	2.408
264.87	2.4
265.03	2.391
265.21	2.377
265.38	2.362
265.55	2.347
265.72	2.331
265.89	2.313
266.06	2.298
266.23	2.281
266.4	2.259
266.57	2.239
266.74	2.232
266.91	2.237
267.08	2.248
267.25	2.259
267.42	2.267
267.58	2.272
267.75	2.273
267.92	2.273
268.09	2.271
268.26	2.265
268.43	2.258
268.6	2.248
268.77	2.235
268.94	2.22
269.11	2.207
269.28	2.196
269.45	2.188
269.62	2.18
269.79	2.177
269.96	2.18
270.13	2.188
270.3	2.204
270.47	2.233
270.64	2.272
270.83	2.307
270.97	2.33
271.17	2.354
271.31	2.366
271.48	2.371
271.65	2.369
271.82	2.357
271.97	2.343
272.17	2.321
272.32	2.298
272.5	2.263
272.65	2.214
272.84	2.166
273.01	2.128
273.18	2.086
273.35	2.042
273.52	1.988
273.69	1.955
273.86	1.901
274.03	1.855
274.19	1.806
274.36	1.76
274.53	1.713
274.7	1.676
275.34	1.551
275.55	1.513
275.81	1.472
276.02	1.426
276.27	1.383
276.53	1.335
276.74	1.271
276.99	1.207
277.29	1.133
