Uv/Vis Spectrum: 2-diazo-2,6-dihydro-6-oxo-1,3-azulenedicarboxylic acid, diethyl ester
Formula: C16H14N2O5
CAS: 53535-43-6
Melting point: 148-149 dec.
Instrument: unknown
Origin: INSTITUTE OF ENERGY PROBLEMS OF CHEMICAL PHYSICS, RAS
Wavelength (nm)	Logarithm epsilon
211.506	4.024
213.435	4.05
215.152	4.078
217.435	4.103
219.435	4.125
221.435	4.137
223.435	4.135
225.435	4.118
227.435	4.088
229.435	4.049
231.435	4.004
233.435	3.958
235.435	3.91
237.079	3.859
239.079	3.808
241.079	3.752
243.079	3.696
245.079	3.647
247.079	3.613
249.079	3.599
251.079	3.606
253.079	3.632
255.079	3.669
257.249	3.724
259.249	3.791
261.249	3.858
263.249	3.926
265.249	3.993
267.249	4.06
269.249	4.127
271.249	4.194
273.085	4.225
275.143	4.238
277.458	4.238
280.382	4.232
282.814	4.23
285.572	4.238
287.585	4.248
289.599	4.251
291.612	4.244
293.626	4.234
295.639	4.228
297.653	4.228
299.666	4.231
301.68	4.241
303.374	4.26
304.792	4.289
306.292	4.322
307.792	4.358
309.292	4.397
310.792	4.436
312.292	4.475
313.792	4.512
315.292	4.545
316.792	4.574
318.292	4.599
319.792	4.618
321.292	4.632
322.792	4.639
324.292	4.64
325.792	4.635
327.292	4.623
328.792	4.605
330.292	4.581
331.792	4.551
333.292	4.514
334.329	4.488
335.829	4.438
337.329	4.387
338.829	4.341
340.329	4.299
341.829	4.262
343.329	4.23
344.829	4.202
346.329	4.174
347.829	4.147
349.329	4.118
350.641	4.093
352.016	4.066
353.383	4.042
355.036	4.029
357.05	4.045
359.063	4.062
361.097	4.066
363.325	4.054
365.039	4.045
366.539	4.03
368.039	4.015
369.539	4.001
371.039	3.987
372.539	3.973
374.039	3.96
375.539	3.948
377.039	3.936
378.539	3.925
380.039	3.914
381.539	3.904
383.039	3.895
384.539	3.885
386.039	3.876
387.539	3.867
389.039	3.859
390.539	3.852
392.039	3.845
393.539	3.84
395.039	3.837
396.539	3.838
398.394	3.84
399.894	3.844
401.394	3.851
402.894	3.857
404.394	3.861
405.894	3.861
407.394	3.857
408.868	3.852
410.361	3.844
411.861	3.834
413.361	3.827
414.861	3.818
416.361	3.81
417.861	3.804
419.361	3.799
420.861	3.796
422.402	3.791
424.024	3.789
425.506	3.787
427.006	3.784
428.506	3.777
430.006	3.764
431.506	3.743
433.006	3.715
434.506	3.682
436.006	3.643
437.506	3.599
439.006	3.55
440.506	3.492
