Uv/Vis Spectrum: 10-ethyl-5,10-dihydrophenarsazine
Formula: C14H14AsN
CAS: 53573-13-0
Melting point: 75
Instrument: SF-8
Origin: INSTITUTE OF ENERGY PROBLEMS OF CHEMICAL PHYSICS, RAS
Wavelength (nm)	Logarithm epsilon
202.354	4.494
203.354	4.504
204.354	4.516
205.354	4.529
206.354	4.541
207.354	4.551
208.354	4.56
209.354	4.564
210.354	4.566
211.354	4.563
212.354	4.557
213.354	4.546
214.354	4.532
215.354	4.513
216.354	4.491
217.354	4.466
218.354	4.439
219.354	4.409
220.354	4.377
221.354	4.344
222.354	4.31
223.354	4.275
224.354	4.241
225.354	4.208
226.354	4.176
227.354	4.145
228.354	4.116
229.354	4.089
230.354	4.064
231.354	4.042
232.354	4.022
233.354	4.005
234.354	3.99
235.354	3.976
236.354	3.964
236.571	3.963
237.571	3.951
238.571	3.941
239.571	3.936
240.571	3.935
241.571	3.938
242.571	3.944
243.571	3.953
244.571	3.962
245.571	3.97
246.571	3.977
247.571	3.981
248.571	3.982
249.571	3.977
250.571	3.968
251.571	3.954
252.571	3.934
253.571	3.91
254.571	3.883
255.571	3.852
256.571	3.82
257.571	3.787
258.571	3.754
259.382	3.73
260.382	3.694
261.382	3.661
262.382	3.631
263.382	3.605
264.382	3.583
265.382	3.566
266.382	3.553
267.382	3.545
268.382	3.543
269.382	3.546
270.382	3.554
271.382	3.569
272.382	3.589
273.382	3.614
274.382	3.644
275.382	3.678
276.382	3.716
277.382	3.756
278.382	3.797
279.382	3.837
280.247	3.874
281.247	3.902
282.247	3.926
283.247	3.949
284.247	3.969
285.247	3.987
286.247	4.003
287.247	4.018
288.247	4.031
289.247	4.042
290.247	4.053
291.247	4.062
292.247	4.069
293.247	4.075
294.247	4.08
295.247	4.083
296.247	4.085
297.247	4.086
298.247	4.085
299.247	4.083
300.247	4.079
301.247	4.075
302.247	4.069
303.247	4.062
304.247	4.055
305.247	4.046
306.247	4.038
307.247	4.028
308.247	4.019
309.247	4.009
310.247	4
311.247	3.991
312.247	3.983
313.247	3.975
314.247	3.968
315.247	3.962
316.247	3.957
317.247	3.953
318.247	3.949
319.247	3.946
320.247	3.944
321.247	3.942
321.419	3.941
322.419	3.937
323.419	3.933
324.419	3.928
325.419	3.923
326.419	3.917
327.419	3.91
328.419	3.902
329.419	3.893
330.419	3.883
331.419	3.872
332.419	3.859
333.419	3.845
334.419	3.829
335.419	3.812
336.419	3.793
337.419	3.772
338.419	3.75
339.419	3.725
340.419	3.699
341.419	3.672
342.419	3.643
343.419	3.612
344.419	3.58
345.419	3.548
346.419	3.514
347.419	3.48
347.724	3.47
348.724	3.433
349.724	3.399
350.724	3.369
351.724	3.339
352.724	3.311
353.724	3.283
354.724	3.255
355.724	3.226
356.724	3.196
357.724	3.164
358.724	3.13
359.724	3.094
359.915	3.088
360.915	3.057
361.915	3.03
362.915	3.008
363.915	2.99
364.915	2.976
365.915	2.964
366.915	2.955
367.915	2.948
368.915	2.941
369.915	2.934
370.915	2.927
371.915	2.918
372.915	2.909
373.915	2.898
374.915	2.888
375.915	2.878
376.915	2.871
377.915	2.868
378.915	2.873
379.41	2.88
