Uv/Vis Spectrum: Pyridine, 4-ethyl-
Formula: C7H9N
CAS: 536-75-4
Melting point: -90.5
Boiling point: 168.3
Instrument: Beckman DU
Origin: INSTITUTE OF ENERGY PROBLEMS OF CHEMICAL PHYSICS, RAS
Wavelength (nm)	Logarithm epsilon
212.171	4.35267
212.211	4.3513
212.259	4.34992
212.31	4.3485
212.324	4.34221
212.421	4.33728
212.525	4.33228
212.633	4.32719
212.645	4.32165
212.686	4.31983
212.735	4.31797
212.762	4.30475
212.778	4.30732
212.787	4.3161
212.8	4.30986
212.888	4.28014
212.925	4.28477
212.972	4.28888
213.142	4.27675
213.142	4.27675
213.147	4.27451
213.151	4.27222
213.155	4.26991
213.427	4.26366
213.431	4.26135
213.435	4.259
213.44	4.25662
213.452	4.25016
213.457	4.24709
213.463	4.244
213.468	4.2409
213.48	4.23412
213.523	4.23118
213.572	4.22823
213.625	4.22525
213.915	4.21689
213.92	4.21408
213.925	4.21124
213.93	4.20834
214.072	4.20034
214.125	4.19814
214.177	4.19593
214.229	4.1937
214.371	4.18624
214.375	4.18369
214.379	4.18112
214.383	4.17854
214.397	4.1692
214.439	4.16608
214.488	4.1629
214.541	4.15967
214.7	4.1507
214.706	4.14684
214.711	4.14295
214.717	4.13902
214.732	4.12795
214.773	4.12511
214.822	4.1222
214.874	4.11925
214.887	4.1094
214.929	4.1058
214.978	4.10216
215.031	4.09843
215.045	4.08717
215.049	4.08431
215.052	4.08143
215.056	4.07853
215.215	4.06771
215.258	4.06303
215.308	4.05831
215.361	4.05353
215.38	4.03683
215.423	4.03141
215.474	4.02594
215.528	4.02039
215.539	4.0103
215.594	4.00386
215.649	3.99732
215.705	3.99068
215.717	3.97855
215.758	3.97409
215.807	3.96952
215.86	3.96487
215.871	3.95214
215.912	3.94788
215.961	3.9435
216.013	3.93904
216.172	3.92404
216.176	3.91936
216.18	3.91464
216.184	3.90986
216.459	3.89095
216.511	3.88699
216.563	3.88295
216.615	3.87879
216.887	3.86153
216.939	3.8573
216.991	3.85302
217.043	3.8487
217.316	3.83017
217.449	3.82536
217.587	3.82039
217.732	3.81533
218.153	3.79081
218.243	3.78514
218.339	3.77934
218.44	3.77335
218.987	3.75347
219.121	3.74772
219.258	3.74179
219.403	3.73571
219.95	3.71506
220.023	3.71156
220.218	3.70834
220.703	3.70264
221.988	3.69699
222.431	3.69789
222.881	3.6988
223.334	3.6997
224.35	3.71247
224.818	3.71737
225.286	3.72222
225.755	3.72702
226.623	3.74103
227.293	3.75218
227.555	3.75723
227.635	3.76071
228.699	3.77277
228.754	3.77704
228.858	3.77958
229.099	3.78259
229.099	3.78259
229.575	3.7944
230.251	3.81056
231.004	3.82505
231.712	3.83259
231.712	3.83259
232.013	3.84088
232.264	3.84893
232.295	3.85677
233.165	3.86568
233.312	3.87023
233.467	3.87468
233.625	3.87901
234.572	3.8927
234.892	3.89801
235.279	3.90333
235.502	3.90735
235.834	3.91812
236.074	3.92261
236.318	3.92699
236.569	3.93128
237.157	3.94547
237.349	3.94969
237.544	3.9538
237.746	3.95783
238.142	3.96923
238.316	3.97426
238.494	3.97917
238.679	3.98399
239.267	3.99658
239.506	4.00186
239.748	4.00702
239.998	4.01209
240.521	4.0239
240.647	4.02811
240.776	4.03228
240.913	4.03641
241.31	4.04494
241.436	4.04845
241.566	4.0519
241.703	4.05528
241.971	4.06236
242.145	4.06609
242.32	4.06977
242.494	4.07336
242.676	4.08361
242.786	4.08668
242.896	4.08967
243.006	4.09262
243.546	4.1019
243.719	4.10561
243.893	4.10924
244.067	4.11282
244.46	4.12262
244.789	4.12977
244.962	4.1329
245.125	4.13479
245.516	4.14491
245.642	4.1477
245.768	4.15045
245.894	4.15314
246.286	4.16295
246.411	4.16639
246.54	4.1698
246.676	4.17319
247.071	4.18017
247.154	4.18226
247.244	4.1843
247.338	4.18631
247.602	4.19379
247.727	4.19706
247.856	4.20026
247.992	4.20343
248.175	4.21028
248.285	4.21302
248.394	4.21575
248.503	4.21846
248.962	4.22509
249.157	4.22756
249.36	4.22998
249.566	4.23236
250.694	4.23744
250.892	4.23802
251.098	4.23859
251.308	4.23916
252.109	4.24487
252.283	4.2474
252.457	4.24993
252.631	4.25244
252.962	4.25795
253.022	4.26064
253.082	4.26329
253.142	4.26589
253.538	4.27094
253.619	4.27345
253.708	4.27592
253.8	4.27836
254.324	4.28414
254.45	4.28629
254.58	4.2884
254.717	4.29049
255.111	4.29667
255.201	4.29943
255.334	4.30194
255.631	4.30402
255.631	4.30402
256.062	4.30268
256.174	4.30009
256.197	4.29699
256.337	4.29233
256.377	4.29067
256.425	4.28898
256.477	4.28726
256.633	4.28212
256.707	4.27956
256.853	4.27748
256.971	4.27509
257.063	4.26921
257.134	4.26641
257.204	4.26355
257.274	4.26066
257.274	4.26066
257.388	4.26059
257.481	4.25369
257.502	4.26049
257.506	4.24936
257.517	4.24343
257.52	4.25702
257.559	4.24079
257.608	4.23812
257.616	4.26037
257.616	4.26037
257.661	4.2354
257.802	4.22863
257.893	4.22613
257.99	4.22358
258.091	4.221
258.234	4.21322
258.286	4.21109
258.339	4.20894
258.391	4.20678
258.534	4.19875
258.625	4.19583
258.722	4.19287
258.824	4.18985
259.097	4.1815
259.187	4.17899
259.284	4.17643
259.384	4.17383
259.655	4.16678
259.657	4.16523
259.659	4.16363
259.662	4.16201
260.226	4.1539
260.421	4.1541
260.62	4.15428
260.825	4.15442
260.825	4.15442
260.889	4.15566
260.957	4.15686
261.031	4.15803
261.342	4.16725
261.404	4.16952
261.47	4.17175
261.543	4.17394
262.215	4.18019
262.525	4.1725
262.704	4.16496
262.788	4.15569
262.801	4.14664
262.841	4.14414
262.89	4.14164
262.941	4.13912
263.1	4.12982
263.104	4.12668
263.109	4.12347
263.113	4.12021
263.254	4.11221
263.296	4.10832
263.346	4.10436
263.399	4.10032
263.556	4.09195
263.599	4.08696
263.65	4.08188
263.705	4.07669
263.715	4.06784
263.801	4.06422
263.891	4.06051
263.988	4.05675
264.002	4.04434
264.032	4.01721
264.056	4.03941
264.111	4.03442
264.124	4.01164
264.165	4.02937
264.223	4.00595
264.325	4.00015
264.467	3.98843
264.538	3.9835
264.612	3.97845
264.693	3.9733
264.693	3.9733
264.807	3.97287
264.921	3.97243
264.953	3.94889
264.986	3.96114
265.035	3.97199
265.035	3.97199
265.325	3.93929
265.325	3.93929
265.422	3.91785
265.507	3.89796
265.582	3.8797
265.646	3.86309
265.701	3.84813
265.748	3.83478
265.786	3.82296
265.816	3.81257
265.84	3.80346
265.858	3.79547
265.866	3.75157
265.87	3.78838
265.872	3.75837
265.878	3.78199
265.878	3.76453
265.881	3.77033
265.881	3.77606
265.962	3.69325
265.975	3.70824
265.996	3.72274
266.02	3.73677
266.051	3.67744
266.139	3.66346
266.231	3.64901
266.331	3.63408
266.341	3.60909
266.479	3.59055
266.621	3.57119
266.77	3.55092
266.925	3.52386
267.013	3.5051
267.105	3.4854
267.204	3.46455
267.489	3.43134
267.607	3.41452
267.726	3.39704
267.844	3.37881
