Uv/Vis Spectrum: m-Anisidine
Formula: C7H9NO
CAS: 536-90-3
Melting point: -1
Boiling point: 251
Instrument: n.i.g.
Origin: INSTITUTE OF ENERGY PROBLEMS OF CHEMICAL PHYSICS, RAS
Wavelength (nm)	Logarithm epsilon
320.317	0.534851
320.252	0.52857
320.195	0.522275
320.061	0.538486
319.917	0.54053
319.734	0.601223
319.52	0.654128
319.12	0.735192
318.802	0.797531
318.158	0.852401
317.561	0.921723
317.145	0.995381
316.938	1.03244
316.687	1.03607
316.546	1.03811
316.341	1.10252
316.056	1.16074
315.447	1.26271
315.332	1.2733
315.072	1.29505
315.008	1.31752
314.841	1.36244
314.726	1.36415
314.455	1.36812
314.384	1.38853
314.233	1.42477
313.967	1.47231
313.465	1.55196
312.608	1.68458
312.481	1.69918
312.102	1.7482
311.595	1.81726
311.003	1.89871
310.373	1.9849
309.747	2.0682
309.449	2.10638
308.684	2.18205
308.287	2.22011
308.201	2.26672
307.718	2.30888
307.704	2.3268
307.696	2.33606
307.46	2.33969
307.327	2.34173
306.481	2.40798
306.06	2.44133
305.928	2.48263
305.848	2.5035
305.614	2.50713
305.483	2.50918
305.24	2.55568
305.101	2.57916
304.645	2.57906
304.391	2.61195
304.167	2.637
304.038	2.64952
303.807	2.65315
303.677	2.6552
303.198	2.70165
302.978	2.72511
302.748	2.72874
302.619	2.73078
302.566	2.80083
302.56	2.80814
302.557	2.8118
302.396	2.75912
302.333	2.81176
302.266	2.77358
302.117	2.80073
302.038	2.77721
301.909	2.77926
301.898	2.79339
301.893	2.80069
301.885	2.81167
301.879	2.81898
301.876	2.82264
301.455	2.82937
301.23	2.83297
300.282	2.91204
300.007	2.94145
299.784	2.94299
299.658	2.94399
299.631	2.98008
299.617	2.99835
299.173	3.00349
298.952	3.00606
298.294	3.0364
297.949	3.05185
297.845	3.06438
297.779	3.07064
297.558	3.07427
297.433	3.07631
296.995	3.12277
295.153	3.16209
295.051	3.17477
294.986	3.1814
293.277	3.22579
292.887	3.23479
291.868	3.26218
289.924	3.29635
288.221	3.31909
287.446	3.32873
286.744	3.34112
286.394	3.34731
285.052	3.35282
284.028	3.34416
283.135	3.34201
282.706	3.34124
282.123	3.33537
281.845	3.33267
281.656	3.32531
281.574	3.32163
281.26	3.33515
280.987	3.3182
280.846	3.33244
280.277	3.31609
278.791	3.29053
276.92	3.24471
276.659	3.23369
276.528	3.22841
276.155	3.22468
275.969	3.22305
275.675	3.2066
275.301	3.18472
275.296	3.19204
275.294	3.1957
274.922	3.19561
274.737	3.19556
274.371	3.18815
274.189	3.18445
274.096	3.17726
274.064	3.17396
272.54	3.14066
271.015	3.09164
270.613	3.08519
269.96	3.05373
269.954	3.06434
269.95	3.06994
269.258	3.03527
268.908	3.02628
268.671	2.99903
268.552	2.98541
268.281	2.97608
268.156	2.97172
268.071	2.95915
268.042	2.95287
267.604	2.94021
267.413	2.91193
267.404	2.92656
267.4	2.93388
267.067	2.90452
266.894	2.90081
266.2	2.84092
265.925	2.8143
265.658	2.80497
265.536	2.8006
265.38	2.77338
265.313	2.75977
265.047	2.75238
264.676	2.75437
263.251	2.75558
262.53	2.75641
261.003	2.79588
260.364	2.8128
260.281	2.83264
260.228	2.84256
258.916	2.92507
258.466	2.95552
258.371	2.95708
257.703	2.98249
257.553	3.00417
257.211	3.03097
256.096	3.10741
255.341	3.16323
255.179	3.16686
255.087	3.1689
254.233	3.22705
254.117	3.23868
253.956	3.24231
253.865	3.24436
253.601	3.27123
253.253	3.2928
252.74	3.30632
252.546	3.31402
252.392	3.33923
252.302	3.35211
250.473	3.44804
250.05	3.46803
250.049	3.46962
249.359	3.49187
249.289	3.49917
249.245	3.50282
248.936	3.51004
248.782	3.51365
248.638	3.52775
248.554	3.53502
248.087	3.55045
247.519	3.57548
247.151	3.5806
246.958	3.58316
246.815	3.59934
246.732	3.60766
246.206	3.62372
245.932	3.63198
245.928	3.6388
245.926	3.64243
245.092	3.67308
244.808	3.68287
244.146	3.71093
243.909	3.72075
243.642	3.72973
242.607	3.75275
242.314	3.76156
242.167	3.7662
242.101	3.773
242.059	3.77663
239.846	3.83904
239.074	3.86245
238.729	3.87124
238.548	3.87587
237.989	3.87727
237.711	3.8782
237.552	3.89027
237.407	3.89431
236.578	3.90902
236.177	3.91586
236.037	3.92104
235.958	3.92363
234.989	3.93039
234.749	3.9342
233.749	3.93227
233.252	3.93107
231.509	3.88036
231.31	3.87342
230.759	3.85685
229.967	3.83217
229.708	3.83015
229.579	3.82942
229.148	3.81812
228.74	3.81031
228.488	3.80096
228.361	3.79658
227.855	3.78714
227.602	3.78271
226.921	3.76419
225.945	3.7335
225.47	3.74083
225.19	3.74681
224.763	3.74824
224.551	3.74919
224.428	3.74546
224.359	3.74337
224.129	3.74328
223.997	3.76519
223.754	3.75778
223.368	3.75973
223.292	3.77383
223.254	3.78112
