Uv/Vis Spectrum: Pyridine, 3-ethyl-
Formula: C7H9N
CAS: 536-78-7
Melting point: -76.9
Boiling point: 165
Instrument: n.i.g.
Origin: INSTITUTE OF ENERGY PROBLEMS OF CHEMICAL PHYSICS, RAS
Wavelength (nm)	Logarithm epsilon
240.648	2.94889
240.753	2.9575
241.192	2.98022
241.349	2.99283
241.705	3.01229
241.892	3.02268
242.276	3.04082
242.386	3.04723
242.444	3.05054
242.477	3.05493
242.957	3.07917
243.046	3.07991
243.527	3.11193
243.633	3.12021
244.208	3.14906
244.389	3.1596
244.857	3.18327
244.93	3.18447
244.967	3.18518
245.034	3.18962
245.077	3.19123
245.214	3.1942
245.292	3.19701
245.328	3.20272
245.349	3.20563
245.482	3.21233
245.564	3.21763
245.764	3.22608
245.867	3.23034
245.883	3.23273
245.893	3.23393
246.256	3.25058
246.328	3.25291
246.386	3.25736
246.678	3.27046
246.817	3.27829
247.112	3.29642
247.186	3.29906
247.222	3.30038
247.255	3.30387
247.547	3.31965
247.583	3.32299
248.065	3.34224
248.19	3.34983
248.441	3.36181
248.478	3.36219
248.499	3.36244
248.531	3.36597
248.551	3.36773
248.64	3.37159
248.906	3.3856
248.939	3.38803
248.959	3.39109
249.032	3.39357
249.283	3.40324
249.333	3.40891
249.612	3.42096
249.685	3.42594
249.989	3.43788
250.064	3.44222
250.371	3.452
250.386	3.4559
250.397	3.45783
250.456	3.46003
250.695	3.46877
250.839	3.47376
251.076	3.48347
251.205	3.48865
251.265	3.49191
251.319	3.49323
251.563	3.50157
251.579	3.50314
251.589	3.50395
251.643	3.50551
251.834	3.51656
251.834	3.51561
251.835	3.5138
251.908	3.5178
251.944	3.51842
251.981	3.52144
252.216	3.53019
252.232	3.53173
252.242	3.5325
252.408	3.5377
252.54	3.54515
252.54	3.54456
252.54	3.5434
252.63	3.5478
252.676	3.54944
252.692	3.55059
252.869	3.55671
252.938	3.55977
252.974	3.56129
253.047	3.56241
253.084	3.56408
253.084	3.56297
253.194	3.56789
253.226	3.57168
253.518	3.58001
253.554	3.58055
253.575	3.58086
253.631	3.58419
253.706	3.58679
253.727	3.58702
253.842	3.59181
253.895	3.59466
253.925	3.59612
253.979	3.59738
254.171	3.6041
254.221	3.60601
254.281	3.60714
254.314	3.6096
254.605	3.6197
254.605	3.61893
254.605	3.61746
254.678	3.62061
254.715	3.62207
254.715	3.6211
254.929	3.62795
255.068	3.63285
255.253	3.63927
255.363	3.64273
255.635	3.64958
255.766	3.65371
256.017	3.65934
256.123	3.66328
256.393	3.66981
256.486	3.67265
256.827	3.67943
256.877	3.68153
256.937	3.68295
257.043	3.68485
257.319	3.6898
257.371	3.69123
257.397	3.69194
257.524	3.69396
257.806	3.69806
258.017	3.70195
258.24	3.70593
258.454	3.70882
258.538	3.71039
258.592	3.71056
258.894	3.71418
258.91	3.71497
258.92	3.71536
258.994	3.71615
259.03	3.71654
259.046	3.71732
259.381	3.72232
259.601	3.72536
259.983	3.72972
260.211	3.73291
260.58	3.73705
260.736	3.73898
261.365	3.74531
261.635	3.74688
261.994	3.74964
262.101	3.74965
262.592	3.74695
262.645	3.74675
262.671	3.74669
262.711	3.74596
262.918	3.7426
263.028	3.74112
263.081	3.74038
263.1	3.73944
263.302	3.7343
263.343	3.73171
263.575	3.72584
263.624	3.72379
263.901	3.7166
263.938	3.71426
264.065	3.70836
264.115	3.70676
264.176	3.7036
264.248	3.70779
264.391	3.69757
264.45	3.69597
264.665	3.68835
264.682	3.68778
264.723	3.6871
264.756	3.68484
264.938	3.67955
265.004	3.67775
265.322	3.66801
265.408	3.66437
265.538	3.65878
265.604	3.6568
265.702	3.65279
265.742	3.6523
265.975	3.64732
265.975	3.64642
265.975	3.64601
266.046	3.64429
266.359	3.63629
266.432	3.63415
266.742	3.62636
266.868	3.62373
267.341	3.61619
267.422	3.61435
267.887	3.60586
267.959	3.60416
268.433	3.59601
268.453	3.59497
268.46	3.59445
268.64	3.59101
268.975	3.58426
269.065	3.58152
269.411	3.57227
269.485	3.5679
269.795	3.55824
269.832	3.55436
270.016	3.54549
270.1	3.53617
270.122	3.5315
270.162	3.53084
270.18	3.53055
270.18	3.52696
270.396	3.51419
270.396	3.50854
270.56	3.49719
270.601	3.49
270.729	3.47844
270.813	3.46882
270.945	3.45782
271.019	3.44971
271.167	3.435
271.208	3.43283
271.33	3.41798
271.367	3.40944
271.494	3.39783
271.531	3.3922
271.547	3.38935
271.587	3.38844
271.658	3.37669
271.708	3.3729
271.879	3.3546
271.916	3.34642
271.985	3.33391
272.043	3.32494
272.207	3.30487
272.28	3.29467
272.37	3.27546
272.421	3.27108
272.586	3.24886
272.637	3.23698
272.756	3.21328
272.793	3.19809
272.92	3.17452
272.956	3.16487
273.193	3.14069
273.213	3.13326
273.22	3.1296
273.256	3.1288
273.272	3.12852
273.292	3.12329
273.357	3.10652
273.415	3.09122
273.631	3.05912
273.679	3.05273
273.736	3.04016
273.794	3.03543
274.34	2.98111
274.397	2.97491
274.939	2.92711
274.976	2.92365
275.317	2.89755
275.368	2.88475
275.428	2.87601
275.617	2.863
275.701	2.85944
275.774	2.85226
276.137	2.82252
276.355	2.80373
276.793	2.76401
276.886	2.76014
276.929	2.75848
277.129	2.74036
277.554	2.70853
277.713	2.69813
278.21	2.64424
278.32	2.63759
278.372	2.63423
278.446	2.62467
278.918	2.57808
278.99	2.57524
279.023	2.57424
279.17	2.56124
279.679	2.52682
