Uv/Vis Spectrum: Phenylethyne
Formula: C8H6
CAS: 536-74-3
Boiling point: 143
Instrument: SF-4
Origin: INSTITUTE OF ENERGY PROBLEMS OF CHEMICAL PHYSICS, RAS
Wavelength (nm)	Logarithm epsilon
216.29	3.856
216.64	3.869
216.98	3.879
217.29	3.891
217.59	3.903
217.89	3.914
218.19	3.926
218.49	3.937
218.75	3.949
219.05	3.96
219.36	3.972
219.66	3.984
219.92	3.995
220.18	4.007
220.44	4.019
220.69	4.03
220.97	4.041
221.25	4.052
221.51	4.063
221.77	4.073
221.99	4.084
222.25	4.095
222.46	4.105
222.72	4.114
222.98	4.124
223.24	4.134
223.51	4.143
223.76	4.151
224.06	4.159
224.32	4.166
224.62	4.173
224.96	4.179
225.31	4.185
225.64	4.191
225.96	4.197
226.3	4.202
226.65	4.207
226.95	4.214
227.25	4.219
227.51	4.226
227.77	4.234
228.03	4.24
228.29	4.248
228.5	4.256
228.72	4.264
228.93	4.273
229.11	4.28
229.32	4.288
229.58	4.294
229.84	4.3
230.05	4.306
230.36	4.312
230.66	4.316
231	4.32
231.31	4.324
231.65	4.329
231.95	4.334
232.17	4.34
232.43	4.345
232.6	4.352
232.82	4.358
232.99	4.364
233.12	4.371
233.25	4.378
233.38	4.385
233.52	4.391
233.68	4.398
233.89	4.404
234.15	4.409
234.41	4.414
234.76	4.417
235.15	4.414
235.45	4.41
235.66	4.405
235.88	4.399
236.02	4.394
236.18	4.387
236.31	4.381
236.44	4.374
236.61	4.367
236.78	4.361
237	4.354
237.14	4.349
237.35	4.342
237.52	4.335
237.69	4.328
237.91	4.322
238.16	4.315
238.42	4.309
238.73	4.304
239.07	4.301
239.46	4.301
239.85	4.302
240.24	4.302
240.62	4.3
240.97	4.295
241.23	4.289
241.49	4.283
241.75	4.276
242.05	4.272
242.44	4.271
242.78	4.275
243.08	4.279
243.31	4.285
243.51	4.293
243.72	4.302
243.86	4.309
243.99	4.316
244.12	4.323
244.27	4.331
244.42	4.338
244.55	4.346
244.75	4.354
244.89	4.36
245.07	4.367
245.37	4.371
245.66	4.369
245.89	4.362
246.06	4.349
246.27	4.336
246.49	4.314
246.71	4.296
246.92	4.263
247.14	4.234
247.35	4.206
247.57	4.174
247.78	4.148
248	4.114
248.22	4.071
248.43	4.03
248.65	3.984
248.86	3.937
249.08	3.881
249.29	3.826
249.51	3.773
249.73	3.708
249.94	3.649
250.46	3.524
250.67	3.476
250.93	3.43
251.15	3.379
251.41	3.329
251.71	3.283
252.06	3.231
252.4	3.185
252.73	3.138
253.13	3.089
253.44	3.051
253.91	3.006
254.28	2.975
254.61	2.948
255.06	2.911
255.44	2.882
255.85	2.852
256.19	2.815
256.63	2.765
257.02	2.719
257.33	2.686
