Uv/Vis Spectrum: Dibenz[a,h]anthracene
Formula: C22H14
CAS: 53-70-3
Melting point: 262
Instrument: Zeiss PMQ II
Origin: INSTITUTE OF ENERGY PROBLEMS OF CHEMICAL PHYSICS, RAS
Wavelength (nm)	Logarithm epsilon
183.98	4.567
185.16	4.584
186.35	4.601
187.41	4.626
188.32	4.654
189.17	4.682
190.1	4.707
191.28	4.727
192.63	4.737
194.08	4.737
194.98	4.707
195.56	4.673
195.97	4.637
196.39	4.599
196.72	4.56
197.05	4.522
197.39	4.484
197.73	4.445
198.07	4.407
198.49	4.371
199	4.337
199.43	4.3
199.95	4.264
200.55	4.228
201.16	4.194
202.39	4.168
203.91	4.174
204.99	4.202
206.08	4.232
207	4.264
207.84	4.296
208.68	4.33
209.53	4.364
210.48	4.396
211.25	4.43
212.03	4.467
212.8	4.501
213.39	4.539
213.98	4.577
214.34	4.611
214.64	4.633
215.38	4.641
215.58	4.641
215.98	4.641
216.59	4.641
217.19	4.633
217.81	4.626
218.42	4.626
219.04	4.641
219.67	4.663
220.29	4.699
220.92	4.782
221.56	4.808
222.19	4.788
222.84	4.746
223.48	4.686
224.13	4.622
224.78	4.554
225.44	4.499
226.1	4.469
226.76	4.452
227.43	4.439
228.1	4.428
228.78	4.424
229.46	4.426
230.14	4.435
230.83	4.445
231.52	4.456
232.22	4.462
232.9	4.459
233.62	4.435
234.33	4.375
235.05	4.279
235.76	4.16
236.49	4.079
237.21	3.998
237.94	3.936
238.68	3.897
239.42	3.876
240.16	3.865
240.91	3.859
241.67	3.859
242.43	3.87
243.19	3.867
243.96	3.855
244.73	3.84
246.82	3.827
249.07	3.84
250.69	3.867
251.92	3.902
253.02	3.936
254.41	3.97
255.39	4.004
256.52	4.038
257.81	4.072
259.11	4.106
260.12	4.14
261.15	4.174
262.33	4.209
263.68	4.238
265.34	4.27
266.71	4.302
267.95	4.337
269.04	4.373
269.84	4.406
270.61	4.45
271.26	4.479
272.2	4.526
272.84	4.565
273.66	4.6
274.28	4.624
274.77	4.63
275.11	4.629
275.76	4.622
276.42	4.614
277.08	4.614
277.75	4.626
278.41	4.644
279.09	4.65
279.76	4.646
280.44	4.629
281.12	4.622
281.8	4.629
282.49	4.658
283.13	4.685
283.85	4.719
284.57	4.791
285.27	4.859
285.98	4.929
286.68	4.959
287.4	4.972
288.11	4.968
288.83	4.963
289.55	4.953
290.28	4.933
291.01	4.895
291.74	4.852
292.48	4.818
293.22	4.806
293.96	4.803
294.71	4.81
295.46	4.831
296.36	4.897
297.34	5.04
298.12	5.14
298.89	5.226
299.67	5.249
300.44	5.238
300.92	5.177
301.69	5.041
302.68	4.808
303.2	4.682
303.99	4.571
304.79	4.486
305.6	4.422
306.4	4.396
307.22	4.377
308.03	4.366
308.86	4.356
309.68	4.343
310.51	4.322
311.35	4.292
312.17	4.257
313.03	4.194
313.88	4.14
314.73	4.13
315.59	4.136
316.45	4.157
317.32	4.206
318.19	4.247
319.07	4.26
319.95	4.275
320.83	4.281
321.73	4.287
322.62	4.287
323.52	4.273
324.43	4.234
325.34	4.162
326.26	4.087
327.18	4.027
328.11	4.019
329.04	4.021
329.98	4.036
330.92	4.059
331.68	4.105
332.26	4.158
332.89	4.205
333.54	4.232
334.26	4.238
335.23	4.236
336.2	4.219
337.18	4.189
338.17	4.14
339.16	4.038
339.87	3.925
340.69	3.831
341.66	3.808
342.67	3.804
343.69	3.812
344.71	3.846
345.74	3.895
346.77	3.948
347.81	4.008
348.86	4.119
349.92	4.189
350.98	4.192
352.04	4.123
353.07	3.972
353.9	3.754
355.07	3.452
356.03	3.235
357.32	3.04
359.14	2.812
360.47	2.671
361.66	2.637
362.8	2.635
363.76	2.658
364.21	2.696
364.79	2.703
365.37	2.703
366.14	2.683
366.95	2.591
367.69	2.499
368.26	2.485
368.82	2.493
369.46	2.512
370.09	2.565
370.63	2.633
371.23	2.723
371.68	2.798
372.12	2.874
372.72	2.944
373.32	2.972
373.92	2.974
374.53	2.97
375.11	2.948
375.74	2.844
376.35	2.701
376.97	2.58
377.4	2.496
377.89	2.402
378.35	2.332
379.17	2.307
379.74	2.308
380.36	2.319
381	2.335
381.62	2.367
382.27	2.482
382.89	2.571
383.52	2.605
384.16	2.622
384.79	2.627
385.43	2.605
386.08	2.571
386.61	2.503
387.23	2.415
388.06	2.286
388.67	2.237
389.28	2.227
389.95	2.227
390.65	2.234
391.29	2.256
391.98	2.368
392.62	2.509
393.29	2.648
393.96	2.808
394.96	3.049
395.6	3.086
396.32	3.047
396.74	2.893
397.12	2.749
397.53	2.605
398.07	2.411
398.69	2.234
399.92	2.006
400.77	1.868
401.47	1.765
402.16	1.646
