Uv/Vis Spectrum: 2-Acetyl-5-bromothiophene
Formula: C6H5BrOS
CAS: 5370-25-2
Melting point: 94.5
Boiling point: 103(4)
Instrument: n.i.g.
Origin: INSTITUTE OF ENERGY PROBLEMS OF CHEMICAL PHYSICS, RAS
Wavelength (nm)	Logarithm epsilon
204.242	3.39061
204.379	3.39438
204.52	3.39799
204.669	3.4013
206.238	3.44539
206.89	3.45826
207.538	3.46414
208.37	3.46412
209.968	3.44277
210.707	3.42509
211.453	3.40667
212.203	3.38743
213.88	3.33583
214.579	3.31358
215.278	3.28979
215.976	3.26443
217.654	3.1945
218.473	3.16455
219.292	3.13187
220.111	3.09626
222.131	3.00929
222.827	2.98241
223.526	2.95375
224.233	2.92308
226.608	2.85187
226.867	2.85011
227.126	2.84787
227.386	2.84465
227.611	2.83624
228.129	2.84379
228.65	2.85074
229.18	2.85665
231.54	2.89544
233.012	2.95271
233.622	2.97851
233.89	2.99901
235.67	3.08194
236.353	3.12021
237.04	3.15515
237.735	3.18705
240.83	3.33753
240.919	3.34454
241.016	3.35129
241.116	3.35765
242.526	3.41381
243.136	3.44043
243.745	3.4654
244.355	3.48878
245.335	3.52857
246.155	3.55423
246.593	3.56887
247.026	3.58561
248.294	3.62551
248.754	3.64096
249.222	3.6558
249.694	3.67001
250.873	3.70552
251.67	3.72743
251.98	3.73641
252.067	3.74085
253.606	3.77438
254.41	3.79334
254.772	3.80239
255.002	3.80976
256.403	3.83761
257.012	3.84843
257.621	3.85889
258.23	3.86906
259.36	3.88948
260.057	3.90087
260.89	3.91295
261.753	3.91999
261.753	3.91999
261.846	3.91903
261.947	3.91799
262.051	3.9169
262.448	3.92921
263.174	3.93579
263.828	3.93867
264.884	3.93991
266.608	3.92986
267.138	3.92523
267.675	3.92052
268.216	3.91567
270.373	3.90415
271.314	3.9062
271.871	3.90796
272.522	3.91095
274.074	3.92488
274.623	3.93099
275.126	3.93749
275.34	3.9443
277.028	3.9699
277.214	3.97464
277.529	3.981
277.994	3.99132
279.033	4.00981
279.677	4.02007
279.945	4.02496
280.07	4.02883
281.262	4.04707
281.653	4.05298
282.052	4.05878
282.455	4.06445
283.498	4.07808
284.255	4.0865
284.672	4.09047
285.106	4.09346
286.514	4.10566
287.367	4.10845
288.153	4.11055
289.09	4.11189
290.824	4.10815
291.456	4.10362
292.087	4.09899
292.719	4.09428
294.175	4.08295
294.606	4.07723
295.045	4.07138
295.488	4.06542
296.535	4.05053
297.032	4.04101
297.363	4.03554
297.572	4.03158
298.309	4.01542
298.58	4.00871
298.855	4.00183
299.138	3.9948
299.808	3.97573
300.063	3.96726
300.318	3.95858
300.574	3.94965
301.314	3.92773
301.516	3.91972
301.722	3.91152
301.935	3.90309
302.68	3.87536
302.862	3.86364
303.141	3.85042
303.52	3.8376
303.75	3.8176
304.005	3.8053
304.26	3.79252
304.515	3.7793
305.115	3.74887
305.265	3.73671
305.419	3.72414
305.581	3.71107
306.183	3.67265
306.438	3.65479
306.694	3.63616
306.95	3.6167
307.406	3.57979
307.609	3.55954
307.811	3.53809
308.014	3.51543
308.612	3.46206
308.783	3.44045
308.961	3.41759
309.144	3.39318
309.144	3.39318
309.225	3.35203
309.554	3.29994
310.071	3.24237
310.714	3.18845
311.9	3.06015
312.094	3.0357
312.289	3.0098
312.483	2.98225
314.515	2.75687
315.304	2.68848
318.411	2.60956
318.705	2.51287
319.146	2.43766
319.772	2.35079
