Uv/Vis Spectrum: Benzenamine, N-(phenylmethylene)-
Formula: C13H11N
CAS: 538-51-2
Melting point: 52
Boiling point: 128-132
Instrument: unknown
Origin: INSTITUTE OF ENERGY PROBLEMS OF CHEMICAL PHYSICS, RAS
Wavelength (nm)	Logarithm epsilon
207.8	4.132
208.5	4.141
209.49	4.146
210.63	4.143
211.64	4.137
212.52	4.13
213.69	4.125
215.03	4.128
215.93	4.135
217.3	4.136
218.53	4.132
219.93	4.131
221.19	4.128
222.3	4.122
222.94	4.113
223.59	4.104
224.24	4.094
225.05	4.085
225.71	4.075
226.21	4.065
227.04	4.055
227.71	4.045
228.72	4.035
229.57	4.026
230.77	4.019
232.16	4.024
233.21	4.034
234.8	4.037
235.52	4.026
235.88	4.013
236.42	4.002
236.78	3.989
237.51	3.976
239.16	3.976
240.28	3.986
241.59	3.994
242.35	4.006
243.12	4.017
243.69	4.029
244.46	4.039
244.85	4.051
245.24	4.063
245.82	4.074
246.22	4.085
246.61	4.095
247	4.106
247.4	4.116
247.99	4.126
248.39	4.136
248.79	4.145
249.19	4.154
249.8	4.163
250.2	4.172
250.61	4.181
251.22	4.19
251.63	4.198
252.24	4.206
253.07	4.213
254.11	4.221
255.37	4.226
257.29	4.227
259.23	4.225
260.76	4.221
261.64	4.213
262.53	4.206
263.43	4.199
264.33	4.191
265.01	4.184
265.92	4.176
266.38	4.167
267.53	4.159
268.7	4.151
269.4	4.143
270.1	4.135
270.82	4.126
271.77	4.117
272.49	4.108
273.21	4.099
273.94	4.09
274.67	4.08
275.65	4.07
276.63	4.06
277.38	4.048
278.38	4.038
279.39	4.027
280.15	4.016
280.91	4.005
281.68	3.993
282.71	3.981
283.49	3.969
284.53	3.956
285.58	3.943
286.64	3.929
287.98	3.915
289.06	3.901
290.69	3.888
292.34	3.876
294.57	3.869
297.12	3.869
299.71	3.871
302.05	3.876
304.73	3.878
307.46	3.878
309.93	3.873
312.44	3.863
314.66	3.85
316.6	3.838
318.56	3.825
320.54	3.81
322.21	3.791
324.24	3.774
325.26	3.754
326.64	3.733
328.37	3.711
329.78	3.688
331.55	3.663
333.33	3.637
334.78	3.61
336.24	3.58
337.7	3.548
339.56	3.514
341.44	3.481
343.33	3.441
344.48	3.397
346.41	3.347
348.37	3.299
350.34	3.236
352.34	3.162
354.36	3.073
356.81	2.977
