Uv/Vis Spectrum: 1,9a-Dihydro-1,6,9a-trimethyl-2-phenylpyrazolo[3,4-b][1,4]benzoxazin-3(2H)-one
Formula: C18H17N3O2
CAS: 53857-11-7
Melting point: 146-148
Instrument: Cary 14
Origin: INSTITUTE OF ENERGY PROBLEMS OF CHEMICAL PHYSICS, RAS
Wavelength (nm)	Logarithm epsilon
215.826	4.176
216.571	4.173
217.491	4.168
218.917	4.16
220.127	4.152
221.127	4.148
222.127	4.143
223.127	4.138
224.127	4.134
225.127	4.13
226.127	4.128
227.127	4.127
228.127	4.127
229.127	4.129
230.127	4.132
231.127	4.137
232.127	4.143
233.127	4.149
234.127	4.157
235.127	4.164
236.127	4.172
237.127	4.179
238.127	4.186
239.127	4.191
240.127	4.195
241.127	4.197
242.127	4.197
243.127	4.194
244.127	4.188
245.127	4.179
246.127	4.167
247.767	4.149
248.797	4.13
249.828	4.112
251.154	4.092
252.154	4.07
253.154	4.042
254.154	4.008
255.154	3.967
256.154	3.922
257.154	3.873
258.154	3.823
259.154	3.773
260.094	3.729
261.094	3.695
262.094	3.671
263.094	3.654
264.094	3.642
265.094	3.634
266.094	3.628
267.094	3.625
268.094	3.623
269.094	3.621
270.094	3.619
271.094	3.618
272.094	3.617
273.094	3.617
274.094	3.617
275.094	3.618
276.094	3.62
277.041	3.625
278.041	3.628
279.041	3.632
280.041	3.637
281.041	3.643
282.041	3.649
283.041	3.656
284.041	3.664
285.041	3.672
286.041	3.68
286.728	3.686
287.728	3.694
288.728	3.702
289.728	3.71
290.728	3.719
291.728	3.728
292.728	3.737
293.728	3.747
294.728	3.756
295.728	3.765
296.728	3.774
297.728	3.783
298.728	3.791
299.728	3.799
300.728	3.807
301.728	3.815
302.728	3.822
303.728	3.828
304.728	3.835
305.427	3.839
306.427	3.845
307.427	3.85
308.427	3.855
309.427	3.86
310.427	3.864
311.427	3.868
312.427	3.873
313.427	3.877
314.427	3.882
315.427	3.887
316.427	3.892
317.427	3.896
318.427	3.901
319.427	3.906
320.427	3.91
321.427	3.913
322.427	3.916
323.427	3.918
324.816	3.921
325.816	3.923
326.816	3.924
327.816	3.925
328.816	3.925
329.816	3.926
330.816	3.925
331.816	3.925
332.816	3.923
333.816	3.922
334.816	3.92
335.816	3.918
336.816	3.915
337.816	3.912
338.816	3.909
339.816	3.905
340.816	3.901
341.816	3.896
343.046	3.891
344.046	3.887
345.046	3.881
346.046	3.874
347.046	3.867
348.046	3.859
349.046	3.851
350.046	3.842
351.046	3.834
352.046	3.825
353.046	3.816
354.046	3.808
355.046	3.8
356.046	3.791
357.046	3.783
358.046	3.775
359.046	3.768
360.046	3.76
361.046	3.753
362.046	3.745
363.046	3.738
364.046	3.731
365.046	3.723
366.046	3.716
367.046	3.709
368.046	3.701
369.046	3.694
370.046	3.686
371.046	3.678
372.046	3.671
373.046	3.663
374.046	3.655
375.046	3.647
376.046	3.64
