Uv/Vis Spectrum: Benzyl sulfide
Formula: C14H14S
CAS: 538-74-9
Melting point: 49
Instrument: unknown
Origin: INSTITUTE OF ENERGY PROBLEMS OF CHEMICAL PHYSICS, RAS
Wavelength (nm)	Logarithm epsilon
210.98	4.175
211.15	4.179
211.32	4.183
211.49	4.187
211.66	4.187
211.83	4.191
212.01	4.196
212.18	4.196
212.35	4.2
212.52	4.204
212.69	4.208
213.55	4.196
214.41	4.187
215.26	4.175
216.12	4.166
216.98	4.15
217.84	4.129
218.69	4.112
219.55	4.083
220.41	4.054
221.27	4.029
222.12	4.004
222.98	3.945
223.84	3.874
224.7	3.803
225.55	3.72
226.41	3.662
227.27	3.603
228.13	3.566
228.98	3.532
229.84	3.507
230.7	3.482
231.56	3.462
232.42	3.441
233.27	3.42
234.13	3.403
234.99	3.386
235.85	3.378
236.7	3.361
237.56	3.357
238.42	3.341
239.28	3.332
240.13	3.32
240.99	3.307
241.85	3.299
242.71	3.278
243.56	3.261
244.42	3.24
245.28	3.224
246.14	3.203
246.99	3.19
247.85	3.165
248.71	3.14
249.57	3.12
250.42	3.086
251.28	3.061
252.14	3.036
253	3.003
253.85	2.974
254.71	2.944
255.57	2.915
256.43	2.894
257.28	2.878
258.14	2.865
259	2.853
259.86	2.836
260.71	2.836
261.57	2.815
262.43	2.794
263.29	2.757
264.14	2.711
265	2.673
265.86	2.652
266.72	2.632
267.57	2.59
268.43	2.531
269.29	2.49
270.15	2.427
271	2.369
271.86	2.294
272.72	2.194
273.58	2.102
274.43	2.01
275.29	1.835
276.15	1.693
277.01	1.556
277.86	1.422
278.72	1.326
279.58	1.272
280.44	1.222
281.3	1.176
282.15	1.143
283.01	1.101
