Uv/Vis Spectrum: Benzene, (2-methylpropyl)-
Formula: C10H14
CAS: 538-93-2
Melting point: - 51.4
Boiling point: 172.7
Instrument: unknown
Origin: INSTITUTE OF ENERGY PROBLEMS OF CHEMICAL PHYSICS, RAS
Wavelength (nm)	Logarithm epsilon
227.37	1.398
227.38	1.389
227.41	1.379
227.46	1.36
227.56	1.341
227.68	1.321
227.83	1.307
227.97	1.292
228.26	1.269
228.42	1.256
228.64	1.238
228.82	1.226
229.03	1.216
229.21	1.204
229.46	1.192
229.74	1.181
229.97	1.179
230.16	1.181
230.38	1.186
230.58	1.188
230.8	1.193
231.01	1.197
231.22	1.205
231.45	1.21
231.64	1.216
231.87	1.221
232.07	1.227
232.28	1.238
232.49	1.249
232.7	1.259
232.89	1.27
233.13	1.288
233.34	1.298
233.55	1.316
233.78	1.332
233.94	1.345
234.18	1.359
234.4	1.376
234.61	1.39
234.82	1.405
235.03	1.419
235.24	1.433
235.45	1.446
235.67	1.459
235.88	1.478
236.09	1.496
236.3	1.513
236.51	1.525
236.72	1.541
236.92	1.554
237.15	1.572
237.36	1.581
237.57	1.591
237.78	1.6
238	1.609
238.21	1.618
238.42	1.632
238.63	1.64
238.84	1.649
239.04	1.656
239.26	1.665
239.49	1.673
239.69	1.68
239.9	1.688
240.11	1.699
240.32	1.71
240.54	1.721
240.75	1.735
240.96	1.75
241.17	1.764
241.38	1.777
241.59	1.789
241.8	1.802
242.02	1.812
242.23	1.824
242.44	1.832
242.65	1.84
242.86	1.845
243.08	1.853
243.29	1.858
243.5	1.863
243.71	1.871
243.93	1.876
244.13	1.881
244.35	1.888
244.55	1.893
244.77	1.9
244.98	1.904
245.19	1.911
245.4	1.925
245.62	1.935
245.83	1.946
246.04	1.956
246.25	1.966
246.46	1.978
246.68	1.988
246.89	1.999
247.1	2.008
247.31	2.019
247.52	2.029
247.75	2.039
247.95	2.05
248.17	2.058
248.37	2.064
248.58	2.069
248.79	2.074
249	2.077
249.18	2.077
249.43	2.075
249.64	2.074
249.85	2.074
250.06	2.074
250.27	2.075
250.49	2.078
250.7	2.084
250.91	2.092
251.11	2.1
251.33	2.111
251.54	2.121
251.76	2.132
251.97	2.143
252.18	2.154
252.39	2.167
252.6	2.178
252.8	2.188
253.03	2.199
253.24	2.208
253.45	2.216
253.66	2.22
253.87	2.223
254.09	2.223
254.3	2.223
254.51	2.219
254.72	2.216
254.93	2.212
255.14	2.208
255.36	2.203
255.55	2.199
255.78	2.196
255.99	2.193
256.2	2.189
256.41	2.187
256.63	2.184
256.84	2.184
257.05	2.186
257.26	2.188
257.47	2.192
257.68	2.199
257.9	2.211
258.11	2.225
258.32	2.241
258.53	2.258
258.74	2.271
258.95	2.284
259.17	2.294
259.38	2.301
259.59	2.304
259.8	2.303
260.01	2.301
260.22	2.297
260.44	2.29
260.65	2.286
260.86	2.282
261.07	2.284
261.28	2.284
261.49	2.285
261.71	2.283
261.92	2.272
262.13	2.254
262.34	2.238
262.55	2.22
262.77	2.203
262.98	2.192
263.19	2.18
263.4	2.168
263.61	2.158
263.82	2.153
264.04	2.152
264.25	2.153
264.46	2.158
264.67	2.166
264.88	2.173
264.98	2.175
265.09	2.175
265.21	2.172
265.31	2.167
265.52	2.149
265.73	2.132
265.94	2.115
266.15	2.101
266.36	2.084
266.58	2.069
266.79	2.056
267	2.05
267.21	2.056
267.42	2.064
267.63	2.083
267.85	2.104
268.06	2.131
268.27	2.148
268.48	2.154
268.69	2.153
268.9	2.145
269.12	2.135
269.33	2.102
269.54	2.051
269.75	2.001
269.96	1.956
270.17	1.883
270.39	1.829
270.6	1.755
270.81	1.699
