Uv/Vis Spectrum: 1.4-Diphenyl-trans-trans -butadien-1,3
Formula: C16H14
CAS: 538-81-8
Melting point: 149-151
Instrument: Unicam SP 700
Origin: INSTITUTE OF ENERGY PROBLEMS OF CHEMICAL PHYSICS, RAS
Wavelength (nm)	Logarithm epsilon
199.83	4.033
199.92	4.035
200	4.038
200.09	4.038
200.18	4.04
200.26	4.042
200.35	4.046
200.7	4.068
201.05	4.089
201.4	4.11
201.75	4.132
202.1	4.151
202.46	4.168
202.81	4.183
203.17	4.194
203.53	4.207
203.89	4.217
204.25	4.226
204.61	4.237
204.97	4.245
205.34	4.254
205.7	4.26
206.07	4.269
206.44	4.275
206.81	4.279
207.18	4.286
207.55	4.286
207.92	4.277
208.3	4.256
208.68	4.224
209.05	4.2
209.43	4.172
209.81	4.153
210.19	4.13
210.58	4.11
210.96	4.089
211.35	4.07
211.74	4.053
212.12	4.035
212.52	4.018
212.91	4.001
213.3	3.993
213.69	3.984
214.09	3.976
214.49	3.969
214.89	3.963
215.29	3.961
215.69	3.958
216.09	3.958
216.5	3.958
216.91	3.961
217.32	3.964
217.72	3.969
218.13	3.973
218.55	3.978
218.96	3.982
219.38	3.984
219.8	3.988
220.21	3.993
220.62	3.999
221.06	4.003
221.48	4.01
221.91	4.016
222.33	4.023
222.78	4.029
223.19	4.035
223.62	4.041
224.06	4.046
224.55	4.051
224.98	4.057
225.37	4.061
225.79	4.067
226.25	4.072
226.7	4.078
227.14	4.083
227.59	4.087
228.08	4.091
228.49	4.095
228.95	4.1
229.4	4.104
229.85	4.108
230.32	4.11
230.78	4.112
231.24	4.115
231.71	4.117
232.17	4.117
232.64	4.117
233.12	4.116
233.54	4.115
234.05	4.111
234.47	4.108
235.01	4.104
235.49	4.098
235.97	4.093
236.45	4.088
236.93	4.083
237.42	4.074
237.91	4.065
238.4	4.059
238.89	4.05
239.39	4.042
239.88	4.031
240.38	4.021
240.88	4.008
241.39	3.997
241.89	3.98
242.4	3.967
242.91	3.948
243.42	3.922
243.94	3.896
244.45	3.873
244.97	3.845
245.49	3.815
246.02	3.781
246.54	3.749
247.07	3.708
247.6	3.668
248.13	3.612
248.66	3.569
249.2	3.529
249.74	3.522
250.28	3.49
250.82	3.439
251.37	3.402
251.92	3.37
252.47	3.34
253.02	3.304
253.58	3.283
254.14	3.263
254.7	3.248
255.26	3.233
255.82	3.223
256.39	3.219
256.96	3.219
257.54	3.221
258.17	3.229
258.82	3.242
259.33	3.257
259.83	3.271
260.53	3.29
261.11	3.305
261.69	3.318
262.21	3.33
262.81	3.347
263.41	3.364
264.01	3.383
264.62	3.405
265.23	3.426
265.84	3.445
266.45	3.467
267.07	3.488
267.68	3.509
268.31	3.529
268.93	3.552
269.56	3.571
270.19	3.599
270.82	3.621
271.46	3.642
272.1	3.665
272.74	3.693
273.39	3.717
274.04	3.742
274.69	3.766
275.34	3.792
276	3.817
276.66	3.839
277.33	3.862
277.99	3.884
278.66	3.909
279.34	3.926
280.02	3.948
280.7	3.967
281.38	3.988
282.07	4.01
282.76	4.029
283.45	4.048
284.15	4.068
284.85	4.083
285.55	4.1
286.26	4.115
286.97	4.127
287.69	4.142
288.41	4.162
289.13	4.181
289.85	4.196
290.58	4.215
291.32	4.23
292.05	4.245
292.79	4.264
293.54	4.279
294.29	4.299
295.04	4.318
295.79	4.333
296.55	4.352
297.32	4.367
298.08	4.384
298.86	4.397
299.63	4.418
300.41	4.429
301.19	4.446
301.98	4.459
302.77	4.472
303.57	4.48
304.37	4.485
305.17	4.495
305.98	4.504
306.79	4.519
307.61	4.534
308.43	4.544
309.26	4.557
310.09	4.57
310.92	4.583
311.76	4.594
312.61	4.604
313.46	4.617
314.31	4.632
315.17	4.641
316.03	4.654
316.9	4.664
317.77	4.666
318.65	4.664
319.53	4.658
320.41	4.651
321.31	4.645
322.2	4.643
323.1	4.641
324.01	4.643
324.92	4.645
325.84	4.654
326.76	4.669
327.69	4.688
328.62	4.705
329.56	4.722
330.5	4.737
331.45	4.752
332.4	4.756
333.36	4.754
334.33	4.743
335.3	4.728
336.27	4.707
337.26	4.681
338.24	4.654
339.24	4.628
340.24	4.602
341.24	4.579
342.25	4.568
343.27	4.559
344.29	4.557
345.32	4.559
346.36	4.562
347.4	4.568
348.45	4.574
349.5	4.581
350.56	4.577
351.63	4.562
352.71	4.523
353.79	4.461
354.87	4.371
355.97	4.243
357.07	4.115
358.18	3.986
359.29	3.858
360.41	3.73
361.54	3.601
362.43	3.496
363.3	3.395
364.07	3.295
364.59	3.222
365.11	3.158
365.45	3.122
365.8	3.103
366.12	3.084
366.49	3.071
367	3.062
368.17	3.045
369.34	3.028
370.53	3.017
371.72	3.007
372.92	2.992
374.13	2.977
375.35	2.96
376.57	2.945
377.8	2.926
379.04	2.904
380.29	2.876
381.55	2.851
382.81	2.823
384.08	2.81
385.37	2.799
386.66	2.791
387.96	2.784
389.26	2.78
390.58	2.78
391.9	2.78
393.24	2.778
394.58	2.767
395.94	2.754
397.3	2.729
398.67	2.705
400.05	2.658
401.44	2.613
402.84	2.545
