Uv/Vis Spectrum: 2-amino-1-methyl-3H-phenothiazin-3-one
Formula: C13H10N2OS
CAS: 53827-92-2
Melting point: 195-196
Instrument: unknown
Origin: INSTITUTE OF ENERGY PROBLEMS OF CHEMICAL PHYSICS, RAS
Wavelength (nm)	Logarithm epsilon
226.882	4.182
227.882	4.184
228.882	4.187
229.882	4.191
230.882	4.195
231.882	4.2
232.882	4.206
233.882	4.212
234.882	4.218
235.882	4.226
236.882	4.233
237.882	4.242
238.882	4.251
239.882	4.26
240.882	4.27
241.882	4.28
242.882	4.291
243.882	4.302
244.882	4.313
245.882	4.325
246.882	4.337
247.882	4.35
248.882	4.363
249.882	4.376
250.882	4.389
251.882	4.403
252.882	4.416
253.882	4.43
254.882	4.443
255.882	4.456
256.882	4.469
257.882	4.482
258.882	4.493
259.882	4.505
260.882	4.515
261.882	4.525
262.882	4.533
263.882	4.54
264.882	4.545
265.882	4.549
266.882	4.551
267.882	4.551
268.882	4.549
269.882	4.544
270.882	4.536
271.882	4.526
272.882	4.512
273.882	4.496
274.856	4.473
275.856	4.455
276.856	4.441
277.856	4.432
278.856	4.426
279.856	4.423
280.856	4.422
281.856	4.422
282.856	4.422
283.856	4.422
284.856	4.422
285.856	4.421
286.856	4.419
287.856	4.414
288.856	4.408
289.856	4.4
290.856	4.389
291.856	4.375
292.856	4.359
293.856	4.34
294.856	4.319
295.856	4.295
296.856	4.268
297.856	4.238
298.856	4.206
299.856	4.171
300.856	4.134
301.856	4.095
302.856	4.053
303.856	4.01
304.856	3.966
305.856	3.919
306.856	3.872
307.856	3.823
308.438	3.804
309.438	3.758
310.438	3.716
311.438	3.678
312.364	3.644
313.364	3.613
314.364	3.585
315.364	3.559
316.364	3.535
317.364	3.512
318.364	3.491
319.364	3.47
320.364	3.45
321.364	3.431
322.364	3.411
323.364	3.392
324.364	3.372
325.364	3.351
326.364	3.33
327.364	3.307
328.364	3.283
330.192	3.265
331.192	3.257
332.192	3.251
333.192	3.245
334.192	3.241
335.192	3.237
336.192	3.235
337.192	3.233
338.192	3.232
339.192	3.233
340.192	3.234
341.192	3.236
342.192	3.239
343.192	3.244
344.192	3.249
344.637	3.252
345.637	3.259
346.637	3.265
347.637	3.271
348.637	3.276
349.637	3.28
350.637	3.285
351.637	3.29
352.637	3.295
353.637	3.301
354.637	3.306
355.637	3.312
356.637	3.319
357.637	3.326
358.637	3.333
359.637	3.34
360.637	3.348
361.637	3.356
362.637	3.364
363.637	3.373
364.637	3.382
365.637	3.391
366.637	3.4
367.637	3.409
368.637	3.419
369.637	3.428
370.637	3.438
371.637	3.448
372.637	3.458
373.637	3.468
374.637	3.479
375.637	3.489
376.637	3.5
377.637	3.512
378.637	3.523
379.528	3.539
380.528	3.549
381.528	3.559
382.528	3.571
383.528	3.584
384.528	3.597
385.528	3.611
386.528	3.626
387.528	3.641
388.528	3.657
389.528	3.673
390.528	3.689
391.528	3.706
392.528	3.723
393.528	3.74
394.528	3.757
395.528	3.774
396.528	3.791
397.528	3.808
398.528	3.824
399.528	3.841
400.528	3.858
401.528	3.874
402.528	3.891
403.528	3.907
404.528	3.923
405.528	3.939
406.528	3.955
407.528	3.97
408.528	3.985
409.528	4
410.528	4.015
411.528	4.03
412.528	4.044
413.528	4.059
414.528	4.073
415.528	4.087
416.163	4.094
417.163	4.109
418.163	4.123
419.163	4.136
420.163	4.149
421.163	4.161
422.163	4.173
423.163	4.185
424.163	4.196
425.163	4.207
426.163	4.218
427.163	4.228
428.163	4.238
429.163	4.248
430.163	4.257
431.163	4.266
432.163	4.275
433.163	4.284
434.163	4.292
435.163	4.3
436.163	4.308
437.163	4.315
438.163	4.323
439.163	4.33
440.163	4.336
441.163	4.343
442.163	4.349
443.163	4.354
444.163	4.36
445.163	4.364
446.163	4.369
447.163	4.373
448.163	4.376
449.163	4.38
450.163	4.382
451.163	4.384
452.163	4.386
453.163	4.387
454.163	4.387
455.163	4.387
456.163	4.386
457.163	4.385
458.163	4.383
459.163	4.38
460.163	4.377
461.163	4.373
462.163	4.368
463.163	4.363
464.163	4.357
465.163	4.35
466.163	4.342
467.163	4.334
468.163	4.325
469.163	4.315
470.163	4.305
471.163	4.293
472.163	4.282
473.163	4.269
474.163	4.256
475.163	4.242
476.163	4.227
476.956	4.22
477.956	4.202
478.956	4.183
479.956	4.164
480.956	4.144
481.956	4.125
482.956	4.105
483.956	4.085
484.956	4.065
485.956	4.044
486.956	4.024
487.956	4.003
488.956	3.982
489.956	3.96
490.956	3.939
491.956	3.917
492.956	3.895
493.956	3.873
494.956	3.851
495.956	3.828
496.956	3.805
497.956	3.782
498.956	3.759
499.956	3.736
500.956	3.712
501.956	3.688
502.956	3.664
503.956	3.64
504.697	3.631
