Uv/Vis Spectrum: 4-hydroxy-5-nitro-[1,1'-biphenyl]-3-carboxaldehyde
Formula: C13H9NO4
CAS: 53852-84-9
Melting point: 114-115
Instrument: VSU-2
Origin: INSTITUTE OF ENERGY PROBLEMS OF CHEMICAL PHYSICS, RAS
Wavelength (nm)	Logarithm epsilon
216.909	4.237
220.909	4.269
224.909	4.3
228.909	4.327
232.909	4.348
236.909	4.361
240.909	4.362
244.909	4.35
248.909	4.321
252.909	4.272
256.909	4.199
260.909	4.099
265.577	3.975
269.896	3.843
273.001	3.74
277.001	3.629
281.001	3.472
285.001	3.297
289.001	3.148
293.001	3.054
297.001	3.014
301.001	3.007
305.001	3.018
309.001	3.058
309.061	3.058
313.061	3.12
317.061	3.191
321.061	3.264
325.061	3.332
329.061	3.393
333.061	3.445
337.061	3.487
341.061	3.519
345.061	3.54
349.061	3.549
353.061	3.547
357.061	3.533
361.061	3.507
365.061	3.47
369.061	3.422
373.061	3.365
377.061	3.3
381.061	3.23
385.061	3.157
389.061	3.083
393.061	3.01
397.061	2.939
400.349	2.876
