Uv/Vis Spectrum: 2-[2-(5-nitro-2-furanyl)ethenyl]-5-phenylfuran
Formula: C16H11NO4
CAS: 53811-39-5
Melting point: 136-140
Instrument: Specord UV-Vis
Origin: INSTITUTE OF ENERGY PROBLEMS OF CHEMICAL PHYSICS, RAS
Wavelength (nm)	Logarithm epsilon
195.791	4.57
197.791	4.568
199.791	4.562
201.791	4.553
203.791	4.542
205.791	4.526
206.894	4.513
208.043	4.501
210.043	4.483
212.043	4.475
214.043	4.475
216.043	4.481
218.043	4.496
219.146	4.509
220.677	4.529
222.677	4.551
224.677	4.573
226.677	4.592
228.677	4.606
230.677	4.615
232.677	4.622
234.677	4.624
236.677	4.618
238.677	4.595
239.055	4.584
241.055	4.533
243.055	4.488
245.055	4.443
247.055	4.397
249.055	4.352
251.055	4.308
252.337	4.288
253.211	4.267
255.211	4.245
257.211	4.224
259.211	4.205
261.211	4.188
263.211	4.175
265.211	4.165
267.211	4.159
269.211	4.157
271.211	4.158
273.211	4.163
275.211	4.171
277.211	4.181
279.211	4.192
281.16	4.209
283.16	4.224
285.16	4.24
287.16	4.255
289.16	4.271
291.16	4.287
293.16	4.302
295.16	4.318
297.16	4.333
299.16	4.349
301.16	4.364
303.16	4.38
305.16	4.395
307.281	4.409
309.281	4.423
311.281	4.438
313.281	4.454
315.281	4.468
317.281	4.481
319.281	4.492
321.281	4.499
323.281	4.503
325.281	4.504
327.281	4.501
329.281	4.496
331.281	4.489
333.281	4.48
335.429	4.469
337.527	4.452
339.527	4.435
341.527	4.419
343.527	4.404
345.527	4.39
347.527	4.378
349.527	4.367
351.527	4.358
353.527	4.351
355.527	4.345
357.527	4.34
359.527	4.338
361.527	4.337
363.527	4.337
365.527	4.34
367.527	4.344
369.527	4.349
371.527	4.355
373.527	4.363
375.527	4.372
377.527	4.382
379.527	4.393
381.527	4.404
383.527	4.416
385.085	4.425
387.085	4.441
389.085	4.458
391.085	4.477
393.085	4.497
395.085	4.517
397.085	4.538
399.085	4.558
401.085	4.578
403.085	4.597
405.085	4.615
407.085	4.632
409.085	4.649
411.085	4.664
413.502	4.682
415.502	4.696
417.502	4.709
419.502	4.722
421.502	4.734
423.502	4.745
425.502	4.756
427.502	4.765
429.502	4.773
431.502	4.781
433.502	4.787
435.502	4.791
437.502	4.795
439.502	4.797
441.502	4.798
443.502	4.797
445.502	4.795
447.502	4.792
449.502	4.788
451.502	4.782
453.502	4.776
455.502	4.768
457.502	4.759
459.502	4.748
461.502	4.737
463.502	4.724
465.502	4.71
467.502	4.694
469.502	4.676
471.502	4.656
473.502	4.634
475.502	4.608
477.502	4.578
479.502	4.544
