Uv/Vis Spectrum: 1,2-dimethyl-4-nitro-1H-indol-5-ol
Formula: C10H10N2O3
CAS: 53918-86-8
Melting point: 155-157
Instrument: Cary 15
Origin: INSTITUTE OF ENERGY PROBLEMS OF CHEMICAL PHYSICS, RAS
Wavelength (nm)	Logarithm epsilon
204.309	4.319
205.309	4.33
206.309	4.338
207.309	4.344
208.309	4.35
209.309	4.356
210.309	4.364
211.309	4.372
212.309	4.382
213.309	4.393
214.309	4.405
215.309	4.417
216.309	4.428
217.309	4.439
218.309	4.447
219.309	4.453
220.309	4.456
221.309	4.455
222.309	4.449
223.309	4.438
224.309	4.421
225.309	4.4
226.309	4.373
227.309	4.341
228.309	4.306
229.309	4.267
230.309	4.227
231.309	4.188
232.32	4.134
233.32	4.079
234.32	4.036
235.32	4.005
236.32	3.985
237.32	3.972
238.32	3.967
239.32	3.969
240.32	3.974
241.32	3.984
242.32	3.996
243.32	4.01
244.32	4.025
245.32	4.04
246.32	4.055
247.32	4.069
248.32	4.081
249.32	4.092
250.32	4.102
251.32	4.109
252.32	4.115
253.32	4.12
254.32	4.122
255.32	4.123
256.32	4.123
257.32	4.119
258.32	4.114
259.32	4.105
260.32	4.091
261.32	4.071
262.32	4.044
263.047	4.004
264.047	3.964
265.047	3.928
266.047	3.896
267.047	3.867
268.047	3.841
269.047	3.818
270.047	3.797
271.047	3.778
272.047	3.759
273.047	3.742
274.047	3.726
275.047	3.709
276.047	3.693
277.047	3.676
278.047	3.659
279.047	3.641
280.047	3.622
281.047	3.602
282.047	3.58
283.047	3.556
284.047	3.531
285.047	3.504
286.047	3.474
287.047	3.442
288.047	3.409
289.047	3.372
290.2	3.338
291.2	3.297
292.2	3.245
293.2	3.185
294.2	3.121
295.2	3.055
296.2	2.99
297.2	2.929
298.2	2.873
299.2	2.822
300.164	2.782
302.164	2.713
304.164	2.677
306.164	2.662
308.164	2.66
310.164	2.665
312.164	2.674
314.164	2.685
316.164	2.699
318.164	2.716
320.164	2.735
322.21	2.757
323.21	2.769
324.21	2.783
325.21	2.797
326.21	2.812
327.21	2.827
328.21	2.844
329.21	2.862
330.21	2.88
331.21	2.899
332.21	2.92
333.21	2.941
334.21	2.963
335.21	2.986
336.21	3.009
337.21	3.033
338.21	3.058
339.21	3.084
340.21	3.11
341.21	3.137
342.21	3.163
343.21	3.19
344.21	3.217
345.21	3.244
346.21	3.271
347.21	3.297
348.21	3.323
349.21	3.348
350.21	3.372
351.21	3.396
352.21	3.418
353.21	3.44
354.21	3.461
355.21	3.481
356.21	3.5
357.21	3.518
358.21	3.537
358.978	3.556
360.064	3.575
361.367	3.602
362.562	3.625
363.658	3.651
364.658	3.674
365.658	3.696
366.658	3.717
367.658	3.736
368.658	3.754
369.658	3.77
370.658	3.786
371.658	3.8
372.658	3.814
373.658	3.827
374.658	3.84
375.658	3.851
376.658	3.862
377.658	3.873
378.658	3.883
379.658	3.893
380.658	3.903
381.658	3.912
382.658	3.921
383.658	3.93
384.658	3.938
385.658	3.946
386.658	3.954
387.658	3.962
388.658	3.97
389.658	3.977
390.658	3.985
391.658	3.992
392.658	3.999
393.658	4.005
394.658	4.012
395.658	4.018
396.658	4.024
397.658	4.03
398.658	4.036
399.658	4.041
400.658	4.046
401.658	4.051
402.658	4.055
403.658	4.059
404.658	4.063
405.658	4.066
406.658	4.069
407.658	4.071
408.658	4.073
409.658	4.074
410.658	4.075
411.658	4.075
412.658	4.074
413.658	4.074
414.658	4.072
415.658	4.07
416.658	4.067
417.658	4.064
418.658	4.06
419.658	4.055
420.658	4.05
421.658	4.044
422.658	4.038
423.658	4.031
424.658	4.023
425.658	4.015
426.658	4.007
427.658	3.998
428.658	3.988
429.658	3.978
429.828	3.976
430.828	3.965
431.828	3.955
432.828	3.946
433.828	3.937
434.828	3.928
435.828	3.92
436.828	3.911
437.828	3.903
438.828	3.894
439.828	3.885
440.828	3.876
441.828	3.867
442.828	3.858
443.828	3.848
444.828	3.838
445.828	3.827
446.828	3.816
447.828	3.805
448.828	3.794
449.828	3.783
450.828	3.771
451.828	3.759
452.828	3.747
453.828	3.735
454.828	3.723
455.828	3.711
456.828	3.699
457.828	3.687
458.828	3.675
459.828	3.663
460.828	3.651
461.828	3.639
462.828	3.627
463.828	3.616
464.828	3.604
465.828	3.592
466.828	3.58
467.828	3.568
468.828	3.555
469.828	3.543
470.828	3.529
471.828	3.515
472.828	3.501
473.828	3.485
474.828	3.468
475.828	3.45
