Uv/Vis Spectrum: N,N-Dimethyl-4,4'-azodianiline
Formula: C14H16N4
CAS: 539-17-3
Instrument: SF-4
Origin: INSTITUTE OF ENERGY PROBLEMS OF CHEMICAL PHYSICS, RAS
Wavelength (nm)	Logarithm epsilon
282.39	3.421
283.59	3.387
284.39	3.349
285.18	3.31
285.98	3.272
287.18	3.238
288	3.23
288.75	3.238
290	3.251
291.17	3.289
292.36	3.327
293.56	3.366
294.76	3.404
295.55	3.442
296.75	3.477
298.35	3.511
300.34	3.545
301.54	3.583
303.13	3.617
304.73	3.651
306.72	3.681
308.71	3.711
311.11	3.741
313.9	3.766
316.69	3.792
319.88	3.809
323.47	3.809
326.26	3.788
328.66	3.762
331.05	3.732
333.44	3.703
335.83	3.673
339.03	3.651
342.22	3.664
344.61	3.69
346.6	3.724
348.6	3.758
350.59	3.792
352.58	3.822
353.78	3.856
355.78	3.886
357.37	3.92
359.36	3.95
360.96	3.984
362.16	4.018
364.15	4.048
366.14	4.082
367.74	4.116
368.94	4.15
370.93	4.184
372.92	4.218
374.92	4.248
377.31	4.278
379.7	4.308
381.7	4.338
384.49	4.363
386.88	4.389
389.68	4.41
392.07	4.436
394.46	4.462
397.65	4.483
400.44	4.504
404.03	4.513
407.62	4.521
411.21	4.521
414.8	4.517
418.39	4.508
421.98	4.504
425.57	4.496
429.16	4.491
432.75	4.487
436.34	4.474
439.93	4.462
443.12	4.449
446.31	4.432
449.5	4.415
452.29	4.393
455.08	4.368
456.68	4.334
458.67	4.304
460.66	4.274
462.26	4.24
463.46	4.206
465.05	4.172
466.65	4.137
467.84	4.099
469.04	4.065
470.24	4.031
471.43	3.997
472.63	3.963
473.43	3.924
475.02	3.89
476.22	3.856
476.62	3.818
477.81	3.784
478.21	3.745
479.41	3.711
480.21	3.673
481.4	3.639
482.2	3.6
483.4	3.566
484.19	3.528
484.99	3.489
485.39	3.451
486.59	3.417
487.39	3.378
488.18	3.34
489.38	3.302
490.58	3.263
491.37	3.225
492.17	3.187
493.37	3.152
494.56	3.118
495.36	3.08
496.16	3.042
497.75	3.008
498.15	2.969
498.95	2.931
499.75	2.892
500.95	2.858
501.74	2.82
502.54	2.782
