Uv/Vis Spectrum: 1,2-dimethyl-6-nitro-1H-indol-5-ol
Formula: C10H10N2O3
CAS: 53918-85-7
Melting point: 161-162
Instrument: Cary 15
Origin: INSTITUTE OF ENERGY PROBLEMS OF CHEMICAL PHYSICS, RAS
Wavelength (nm)	Logarithm epsilon
205.502	4.299
206.218	4.295
207.218	4.294
208.218	4.297
209.218	4.302
210.218	4.309
211.218	4.317
212.218	4.326
213.218	4.335
214.218	4.343
215.218	4.351
216.218	4.357
217.218	4.363
218.218	4.366
219.218	4.368
220.218	4.366
221.218	4.362
222.218	4.355
223.218	4.343
223.482	4.337
224.482	4.316
225.482	4.299
226.482	4.283
227.482	4.267
228.482	4.251
229.482	4.232
230.482	4.21
231.482	4.185
232.482	4.157
233.482	4.127
234.482	4.093
235.482	4.058
236.482	4.02
237.482	3.982
238.482	3.944
239.482	3.906
240.482	3.87
241.482	3.836
242.482	3.805
243.482	3.778
244.482	3.754
245.482	3.735
246.482	3.721
247.482	3.711
248.482	3.706
249.482	3.705
250.482	3.707
251.482	3.712
252.482	3.717
253.482	3.721
254.541	3.73
256.079	3.74
258.055	3.754
259.812	3.77
261.13	3.781
262.197	3.792
263.197	3.807
264.197	3.822
265.197	3.836
266.197	3.85
267.197	3.862
268.197	3.872
269.197	3.881
270.197	3.888
271.197	3.892
272.197	3.893
273.197	3.891
274.197	3.887
275.197	3.88
276.197	3.87
277.197	3.858
278.197	3.844
279.197	3.828
280.197	3.812
281.197	3.795
282.197	3.779
282.775	3.768
283.295	3.756
284.066	3.739
284.79	3.714
285.79	3.666
286.79	3.626
287.79	3.587
288.79	3.544
289.79	3.493
290.79	3.434
291.79	3.367
292.79	3.294
293.79	3.215
294.79	3.135
295.79	3.056
296.79	2.98
297.79	2.911
298.79	2.849
299.79	2.798
300.79	2.758
301.79	2.729
302.79	2.711
303.79	2.703
304.79	2.704
305.79	2.712
306.79	2.725
307.79	2.74
308.79	2.757
309.79	2.774
310.79	2.791
311.79	2.811
313.054	2.846
314.054	2.881
315.054	2.917
316.054	2.952
317.054	2.987
318.054	3.021
319.054	3.055
320.054	3.089
321.054	3.122
322.054	3.155
323.054	3.188
324.054	3.22
325.054	3.253
326.054	3.284
327.054	3.316
328.054	3.347
329.054	3.377
330.054	3.408
331.054	3.437
332.054	3.467
333.054	3.496
334.054	3.524
335.054	3.552
336.054	3.58
337.054	3.607
338.054	3.633
339.054	3.659
340.054	3.684
341.054	3.709
342.054	3.733
343.054	3.757
344.054	3.779
345.054	3.802
346.054	3.823
347.054	3.844
348.054	3.865
349.054	3.884
350.054	3.903
351.054	3.922
352.054	3.939
353.054	3.956
354.054	3.972
355.054	3.988
356.054	4.003
357.054	4.017
358.054	4.03
359.054	4.043
360.054	4.055
361.054	4.067
362.054	4.077
363.054	4.088
364.054	4.097
365.054	4.106
366.054	4.114
367.054	4.122
368.054	4.129
369.054	4.135
370.054	4.141
371.054	4.147
372.054	4.151
373.054	4.156
374.054	4.159
375.054	4.163
376.054	4.165
377.054	4.167
378.054	4.169
379.054	4.17
380.054	4.171
381.054	4.171
382.054	4.171
383.054	4.171
384.054	4.169
385.054	4.168
386.054	4.166
387.054	4.164
388.054	4.161
389.054	4.157
390.054	4.154
391.054	4.149
392.054	4.145
393.054	4.14
394.054	4.134
395.054	4.128
396.054	4.121
397.054	4.114
398.054	4.107
399.054	4.099
400.054	4.091
401.054	4.082
402.054	4.072
403.054	4.062
404.054	4.052
405.054	4.041
406.054	4.029
407.054	4.018
408.054	4.005
409.054	3.992
410.054	3.979
411.054	3.966
412.054	3.952
413.576	3.93
414.576	3.91
415.576	3.89
416.576	3.871
417.576	3.852
418.576	3.834
419.576	3.817
420.576	3.8
421.576	3.784
422.576	3.769
423.576	3.754
424.576	3.739
425.576	3.725
426.576	3.712
427.576	3.7
428.576	3.688
429.576	3.676
430.576	3.665
431.576	3.655
432.576	3.646
433.576	3.637
434.576	3.628
435.576	3.621
436.576	3.613
437.576	3.607
438.576	3.601
439.576	3.595
440.576	3.591
441.576	3.586
442.576	3.583
443.576	3.58
