Uv/Vis Spectrum: 2-Propenoic acid, 3-(2-furanyl)-
Formula: C7H6O3
CAS: 539-47-9
Melting point: 141
Boiling point: 286
Instrument: unknown
Origin: INSTITUTE OF ENERGY PROBLEMS OF CHEMICAL PHYSICS, RAS
Wavelength (nm)	Logarithm epsilon
195.7	4.288
197.54	4.23
199.21	4.165
201.22	4.084
202.48	4.04
203.68	3.987
204.59	3.941
205.99	3.876
207.86	3.815
210.43	3.737
212.78	3.69
215.12	3.635
217.69	3.599
221.47	3.561
224	3.539
227.05	3.528
230.09	3.542
232.51	3.561
235.93	3.594
238.98	3.624
241.31	3.66
243.55	3.686
245.99	3.717
249.27	3.755
251.61	3.788
253.98	3.824
256.52	3.87
258.89	3.913
261.2	3.958
263.19	4
265.17	4.045
266.25	4.084
268.71	4.163
270.55	4.23
272.39	4.294
274.84	4.345
276.68	4.395
278.52	4.441
280.36	4.477
282.54	4.515
284.6	4.548
286.4	4.579
288.26	4.609
290.2	4.639
291.84	4.661
293.86	4.68
296.93	4.699
301.83	4.707
305.52	4.688
307.36	4.666
309.2	4.64
310.55	4.617
312.19	4.59
314.1	4.557
315.79	4.523
317.1	4.486
318.27	4.443
319.21	4.41
320.14	4.375
321.08	4.342
322.25	4.307
323.31	4.267
323.92	4.245
324.53	4.222
325.15	4.197
325.76	4.172
326.37	4.144
326.99	4.115
327.86	4.075
328.8	4.021
329.27	3.983
329.73	3.95
330.2	3.92
330.67	3.879
