Uv/Vis Spectrum: (S)-alpha-amino-4-hydroxybenzeacetamide
Formula: C8H10N2O2
CAS: 53958-19-3
Instrument: Cary 118C
Origin: INSTITUTE OF ENERGY PROBLEMS OF CHEMICAL PHYSICS, RAS
Wavelength (nm)	Logarithm epsilon
183.991	4.461
184.991	4.476
185.991	4.502
186.991	4.526
188.043	4.555
189.043	4.588
190.043	4.617
191.043	4.64
192.043	4.653
193.043	4.658
194.043	4.655
195.043	4.643
196.043	4.621
197.05	4.572
198.219	4.5
199.219	4.424
200.219	4.348
201.219	4.274
202.219	4.203
203.219	4.135
204.219	4.07
205.219	4.011
206.219	3.956
207.219	3.908
208.219	3.865
209.219	3.828
210.219	3.797
211.219	3.773
212.219	3.754
213.219	3.742
214.219	3.736
215.219	3.736
216.219	3.74
217.219	3.749
218.219	3.762
219.219	3.779
219.267	3.779
220.267	3.803
221.267	3.825
222.267	3.844
223.267	3.86
224.267	3.873
225.267	3.882
226.267	3.887
227.267	3.887
228.267	3.882
229.267	3.873
230.267	3.859
231.267	3.841
232.267	3.817
233.267	3.789
234.267	3.757
235.267	3.721
236.226	3.681
237.226	3.638
238.226	3.594
239.226	3.552
240.226	3.509
241.226	3.468
242.226	3.427
243.226	3.388
244.226	3.35
245.226	3.314
246.226	3.279
247.226	3.246
248.226	3.215
249.226	3.186
250.226	3.159
251.226	3.134
252.226	3.112
253.226	3.091
254.226	3.074
255.226	3.058
256.226	3.045
257.226	3.034
258.226	3.025
259.226	3.019
260.226	3.015
261.226	3.014
262.226	3.014
263.226	3.017
264.226	3.021
265.226	3.028
266.226	3.036
267.226	3.046
268.226	3.057
269.45	3.074
270.45	3.087
271.45	3.097
272.45	3.105
273.45	3.108
274.45	3.108
275.45	3.104
276.45	3.098
277.486	3.091
278.341	3.061
279.224	3.056
280.052	3.061
281.189	3.049
282.518	3.029
283.443	3.001
284.222	2.954
285.31	2.895
286.31	2.819
287.31	2.742
288.31	2.663
289.31	2.583
290.31	2.501
291.31	2.417
292.024	2.36
