Uv/Vis Spectrum: 2,4,6-Cycloheptatrien-1-one
Formula: C7H6O
CAS: 539-80-0
Instrument: Unicam SP 700
Origin: INSTITUTE OF ENERGY PROBLEMS OF CHEMICAL PHYSICS, RAS
Wavelength (nm)	Logarithm epsilon
197.69	4.04
197.77	4.04
197.86	4.042
197.94	4.042
198.03	4.042
198.11	4.044
198.2	4.044
198.28	4.046
198.37	4.046
198.45	4.049
198.54	4.049
198.97	4.049
199.39	4.053
199.83	4.059
200.26	4.066
200.69	4.068
201.13	4.074
201.57	4.078
202.01	4.081
202.45	4.087
202.9	4.089
203.34	4.091
203.79	4.098
204.24	4.098
204.7	4.1
205.15	4.102
205.61	4.106
206.06	4.108
206.53	4.11
206.99	4.11
207.45	4.11
207.92	4.11
208.39	4.11
208.86	4.113
209.33	4.11
209.81	4.115
210.29	4.115
210.77	4.117
211.25	4.117
211.73	4.119
212.22	4.119
212.71	4.125
213.2	4.13
213.69	4.138
214.18	4.145
214.68	4.153
215.18	4.162
215.68	4.172
216.19	4.181
216.7	4.191
217.21	4.202
217.72	4.211
218.23	4.219
218.75	4.226
219.27	4.234
219.79	4.247
220.31	4.255
220.84	4.264
221.37	4.273
221.9	4.279
222.43	4.283
222.97	4.287
223.51	4.296
224.05	4.309
224.6	4.319
224.97	4.327
225.32	4.33
225.69	4.33
225.99	4.329
226.25	4.326
226.53	4.321
226.77	4.318
227	4.314
227.14	4.313
227.36	4.313
227.56	4.315
227.66	4.316
227.92	4.319
228.21	4.321
228.48	4.322
228.67	4.321
228.84	4.32
228.96	4.317
229.05	4.315
229.18	4.311
229.35	4.307
229.55	4.303
229.81	4.299
230.18	4.296
230.4	4.295
230.77	4.294
231.09	4.295
231.34	4.296
231.68	4.3
231.93	4.305
232.19	4.308
232.31	4.31
232.51	4.311
232.68	4.31
232.82	4.308
232.99	4.305
233.1	4.302
233.22	4.297
233.3	4.29
233.43	4.283
233.54	4.272
233.68	4.262
233.81	4.254
233.98	4.244
234.12	4.235
234.28	4.226
234.46	4.219
234.66	4.21
234.87	4.2
235.08	4.193
235.28	4.185
235.47	4.177
236.07	4.162
236.68	4.145
236.99	4.133
237.29	4.119
237.42	4.108
237.59	4.096
237.73	4.084
237.9	4.07
238.24	4.058
238.51	4.049
239.13	4.04
239.75	4.034
240.37	4.017
241	3.953
241.63	3.884
242.26	3.79
242.9	3.688
243.54	3.581
244.18	3.475
244.7	3.368
244.83	3.368
244.83	3.366
245.22	3.304
245.74	3.208
246.27	3.118
246.79	3.037
247.32	2.986
247.85	2.948
248.38	2.914
248.92	2.884
249.46	2.86
250	2.841
250.54	2.833
251.08	2.826
251.63	2.822
252.18	2.818
252.73	2.818
253.29	2.818
253.84	2.82
254.48	2.825
254.96	2.83
255.53	2.839
256.17	2.85
256.66	2.858
257.23	2.869
257.81	2.882
258.46	2.895
259.07	2.909
259.67	2.923
260.27	2.937
260.76	2.949
261.36	2.959
262.21	2.976
263.09	2.995
263.69	3.014
264.3	3.035
264.9	3.048
265.51	3.065
266.12	3.086
266.74	3.106
267.36	3.127
267.98	3.148
268.6	3.174
269.23	3.191
269.85	3.214
270.71	3.245
271.44	3.264
272.24	3.289
273.04	3.31
273.85	3.338
274.67	3.362
275.49	3.385
276.31	3.411
277.14	3.432
277.97	3.456
278.81	3.475
279.65	3.498
280.5	3.52
281.36	3.541
282.22	3.558
283.08	3.579
283.95	3.601
284.83	3.62
285.71	3.639
286.59	3.66
287.49	3.675
288.38	3.697
289.29	3.709
290.19	3.729
291.11	3.744
292.03	3.754
292.95	3.769
293.89	3.78
294.82	3.795
295.77	3.808
296.72	3.82
297.67	3.833
298.63	3.846
299.6	3.854
300.58	3.863
301.56	3.869
302.55	3.874
303.54	3.876
304.54	3.872
305.55	3.865
306.56	3.854
307.58	3.846
308.61	3.842
309.64	3.837
310.68	3.844
311.73	3.852
312.79	3.861
313.85	3.861
314.92	3.85
316	3.833
317.08	3.808
318.17	3.782
319.27	3.758
320.38	3.735
321.49	3.712
322.62	3.688
323.75	3.654
324.88	3.624
326.03	3.594
327.18	3.571
328.35	3.543
329.52	3.52
330.7	3.5
331.89	3.473
333.08	3.445
334.29	3.424
335.5	3.402
336.72	3.381
337.95	3.36
339.19	3.325
340.44	3.302
341.7	3.27
342.97	3.232
344.25	3.193
345.54	3.161
346.83	3.127
348.14	3.089
349.46	3.037
350.78	2.995
352.12	2.954
353.47	2.912
354.43	2.884
355.83	2.852
357.23	2.819
358.96	2.779
360.36	2.732
361.77	2.688
363.19	2.624
364.63	2.568
365.77	2.517
367.53	2.455
368.99	2.385
370.47	2.327
371.96	2.272
373.47	2.201
374.98	2.137
