Uv/Vis Spectrum: N-[2-(methylamino)-6-nitrophenyl]acetamide
Formula: C9H11N3O3
CAS: 53987-30-7
Melting point: 175.5-176
Instrument: Ultrametr A8-S
Origin: INSTITUTE OF ENERGY PROBLEMS OF CHEMICAL PHYSICS, RAS
Wavelength (nm)	Logarithm epsilon
269.911	3.414
270.911	3.408
271.911	3.403
272.911	3.397
273.911	3.39
274.911	3.383
275.911	3.376
276.911	3.368
277.911	3.359
278.911	3.35
279.911	3.341
280.911	3.33
281.911	3.319
282.911	3.307
283.911	3.294
284.911	3.28
285.911	3.265
286.911	3.249
287.911	3.232
288.911	3.214
289.911	3.195
290.911	3.175
291.911	3.153
292.911	3.13
293.911	3.105
294.911	3.079
295.911	3.052
296.911	3.023
297.911	2.992
298.911	2.96
299.911	2.926
300.911	2.891
301.911	2.854
301.918	2.851
302.918	2.828
303.918	2.801
304.918	2.77
305.918	2.739
306.918	2.707
307.918	2.678
308.918	2.65
309.918	2.626
310.918	2.605
311.918	2.587
312.918	2.573
313.918	2.562
314.918	2.554
315.918	2.549
316.918	2.546
317.918	2.545
318.918	2.546
319.918	2.548
320.918	2.551
321.918	2.554
322.918	2.558
323.918	2.563
324.918	2.569
325.902	2.574
326.414	2.579
326.926	2.585
327.439	2.59
327.951	2.592
328.463	2.599
328.975	2.604
329.487	2.61
330	2.614
330.512	2.619
331.924	2.635
332.924	2.643
333.924	2.657
334.924	2.676
335.924	2.697
336.924	2.72
337.924	2.743
338.924	2.765
339.924	2.786
340.924	2.805
341.924	2.824
342.924	2.841
343.924	2.857
344.924	2.872
345.924	2.886
346.924	2.901
347.924	2.916
348.924	2.932
349.924	2.949
350.924	2.967
351.924	2.985
352.428	2.988
353.428	3.011
354.428	3.032
355.428	3.053
356.428	3.073
357.428	3.093
358.428	3.112
359.428	3.13
360.428	3.148
361.428	3.165
362.428	3.181
363.428	3.197
364.428	3.213
365.428	3.228
366.428	3.242
367.428	3.256
368.428	3.269
369.428	3.282
370.428	3.295
371.428	3.307
372.428	3.319
373.428	3.33
374.428	3.341
375.428	3.352
376.428	3.363
377.428	3.373
378.428	3.384
379.428	3.394
380.428	3.404
381.428	3.415
382.428	3.425
382.936	3.433
383.936	3.441
384.936	3.448
385.936	3.456
386.936	3.463
387.936	3.469
388.936	3.475
389.936	3.481
390.936	3.487
391.936	3.492
392.936	3.497
393.936	3.501
394.936	3.506
395.936	3.509
396.936	3.513
397.936	3.516
398.936	3.519
399.936	3.522
400.936	3.524
401.936	3.526
402.936	3.527
403.936	3.529
404.936	3.529
405.936	3.53
406.936	3.53
407.936	3.53
408.936	3.53
409.936	3.529
410.936	3.528
411.936	3.526
412.936	3.524
413.936	3.522
414.936	3.519
415.936	3.516
416.936	3.512
417.936	3.508
418.936	3.504
419.936	3.499
420.936	3.493
421.936	3.487
422.936	3.481
423.936	3.474
424.936	3.467
425.936	3.459
426.936	3.451
427.936	3.442
428.613	3.436
429.613	3.425
430.613	3.414
431.613	3.402
432.613	3.39
433.613	3.377
434.613	3.364
435.613	3.351
436.613	3.338
437.613	3.324
438.613	3.31
439.613	3.295
440.613	3.28
441.613	3.265
442.613	3.25
443.613	3.234
444.613	3.218
445.614	3.196
446.614	3.177
447.614	3.157
448.614	3.136
449.614	3.115
450.614	3.094
451.614	3.072
452.614	3.05
453.614	3.027
454.614	3.004
455.614	2.981
456.614	2.958
457.614	2.934
458.614	2.911
458.953	2.905
459.953	2.879
460.953	2.852
461.953	2.826
462.953	2.799
463.953	2.771
464.953	2.744
465.953	2.716
466.953	2.687
467.953	2.659
468.953	2.63
469.953	2.601
470.953	2.571
471.953	2.542
472.953	2.513
473.953	2.483
474.953	2.454
475.953	2.426
476.953	2.398
477.953	2.371
478.953	2.345
479.953	2.321
480.953	2.298
481.953	2.277
