Uv/Vis Spectrum: 1H-Pyrrole,2-(1,1-dimethylethyl)-
Formula: C8H13N
CAS: 5398-58-3
Melting point: 32
Instrument: Specord UV-VIS
Origin: INSTITUTE OF ENERGY PROBLEMS OF CHEMICAL PHYSICS, RAS
Wavelength (nm)	Logarithm epsilon
203.81	3.952
204.05	3.952
204.29	3.952
204.52	3.958
204.76	3.958
205	3.958
205.24	3.964
205.48	3.964
205.71	3.97
205.95	3.97
206.19	3.97
208.57	3.964
209.76	3.952
210.95	3.915
212.14	3.859
213.33	3.791
214.52	3.717
215.71	3.668
216.9	3.613
218.1	3.569
219.29	3.532
220.48	3.496
221.67	3.465
222.86	3.428
224.05	3.397
225.24	3.341
226.43	3.292
227.62	3.237
228.81	3.2
230	3.144
231.19	3.101
232.38	3.052
233.57	2.996
234.76	2.941
235.95	2.898
237.14	2.848
238.33	2.811
239.52	2.774
240.71	2.725
241.9	2.688
243.1	2.651
244.29	2.608
245.48	2.577
246.67	2.534
