Uv/Vis Spectrum: 1-methyl-2-(methylthio)-4(1H)-pteridinone
Formula: C8H8N4OS
CAS: 54058-51-4
Melting point: 256
Instrument: Cary 14 PM-50
Origin: INSTITUTE OF ENERGY PROBLEMS OF CHEMICAL PHYSICS, RAS
Wavelength (nm)	Logarithm epsilon
217.596	4.189
217.817	4.189
218.817	4.175
219.817	4.157
220.817	4.137
221.817	4.116
222.817	4.095
223.817	4.075
224.817	4.056
225.817	4.038
226.817	4.021
227.817	4.005
228.817	3.99
229.817	3.975
230.817	3.96
231.817	3.945
232.817	3.931
233.817	3.916
234.817	3.902
235.817	3.888
236.817	3.875
237.817	3.864
238.817	3.855
239.817	3.848
240.817	3.845
241.817	3.846
242.817	3.852
243.817	3.865
244.817	3.883
245.51	3.901
246.51	3.926
247.51	3.953
248.51	3.981
249.51	4.009
250.51	4.035
251.51	4.06
252.51	4.085
253.51	4.109
254.51	4.133
255.51	4.156
256.51	4.177
257.51	4.193
258.51	4.201
259.51	4.194
260.51	4.166
260.575	4.16
261.575	4.133
262.575	4.102
263.575	4.066
264.575	4.023
265.575	3.974
266.575	3.919
267.575	3.861
268.575	3.803
269.575	3.75
269.879	3.733
270.879	3.707
271.879	3.691
272.879	3.681
273.879	3.676
274.879	3.675
275.879	3.676
276.879	3.678
277.879	3.682
278.879	3.687
279.879	3.691
280.879	3.696
281.879	3.702
282.879	3.707
283.879	3.713
284.879	3.72
285.879	3.727
286.879	3.734
287.879	3.742
288.879	3.751
289.879	3.76
290.879	3.769
291.147	3.771
292.147	3.781
293.147	3.789
294.147	3.797
295.147	3.803
296.147	3.809
297.147	3.815
298.147	3.821
299.147	3.827
300.147	3.834
301.147	3.84
302.147	3.847
303.147	3.853
304.147	3.86
305.147	3.866
306.147	3.872
307.147	3.878
308.147	3.883
309.147	3.888
310.147	3.893
311.147	3.898
312.147	3.904
312.415	3.904
313.415	3.913
314.415	3.92
315.415	3.926
316.415	3.932
317.415	3.938
318.415	3.944
319.415	3.95
320.415	3.956
321.415	3.962
322.415	3.968
323.415	3.974
324.415	3.98
325.415	3.986
326.415	3.991
327.415	3.995
328.415	3.999
329.415	4.001
330.415	4.003
331.415	4.003
332.415	4.001
333.415	3.999
334.415	3.995
335.415	3.99
336.415	3.984
337.415	3.977
338.415	3.969
339.415	3.96
340.415	3.952
341.415	3.943
342.323	3.932
343.323	3.929
344.323	3.924
345.323	3.918
346.323	3.911
347.323	3.902
348.323	3.892
349.323	3.879
350.323	3.862
351.323	3.839
352.323	3.81
353.323	3.771
354.323	3.722
355.323	3.661
356.323	3.584
356.594	3.569
357.594	3.45
358.388	3.318
