Uv/Vis Spectrum: 6,7-dimethyl-2-(methylthio)-4(1H)-pteridinone
Formula: C9H10N4OS
CAS: 54030-43-2
Melting point: 283
Instrument: Cary 14 PM-50
Origin: INSTITUTE OF ENERGY PROBLEMS OF CHEMICAL PHYSICS, RAS
Wavelength (nm)	Logarithm epsilon
225.134	3.992
226.134	3.996
227.134	4.002
228.134	4.008
229.134	4.014
230.134	4.021
231.134	4.027
232.134	4.033
233.134	4.039
234.134	4.044
235.134	4.048
236.134	4.051
237.134	4.052
238.134	4.052
239.134	4.05
240.134	4.047
241.134	4.043
242.134	4.036
243.134	4.029
244.134	4.021
245.134	4.012
246.134	4.003
247.134	3.994
248.134	3.985
249.134	3.978
250.134	3.971
251.134	3.966
252.134	3.963
253.134	3.962
254.134	3.963
255.134	3.966
256.134	3.971
257.134	3.977
258.134	3.984
259.134	3.991
259.163	3.991
260.163	3.996
261.163	4.004
262.163	4.012
263.163	4.022
264.163	4.032
265.163	4.041
266.163	4.051
267.163	4.061
268.163	4.071
269.163	4.081
270.163	4.09
271.163	4.1
272.163	4.11
273.163	4.12
274.163	4.13
275.163	4.14
276.163	4.149
277.163	4.157
278.163	4.164
279.163	4.169
280.163	4.17
281.163	4.168
282.144	4.16
283.144	4.143
284.144	4.124
285.144	4.104
286.144	4.083
287.144	4.062
288.144	4.039
289.144	4.016
290.144	3.992
291.144	3.968
292.144	3.943
293.144	3.919
294.144	3.896
295.144	3.873
296.144	3.852
297.144	3.831
298.144	3.813
299.144	3.796
300.144	3.78
301.144	3.768
302.144	3.757
303.144	3.749
304.144	3.743
305.144	3.739
306.144	3.738
307.144	3.739
308.144	3.742
309.144	3.747
310.144	3.753
310.428	3.751
311.428	3.761
312.428	3.77
313.428	3.777
314.428	3.783
315.428	3.789
316.428	3.796
317.428	3.803
318.428	3.811
319.428	3.821
320.428	3.831
321.428	3.842
322.428	3.853
323.428	3.865
324.428	3.876
325.428	3.887
326.428	3.897
327.428	3.906
328.428	3.914
329.428	3.92
330.428	3.923
331.428	3.925
332.428	3.924
333.428	3.92
334.428	3.914
335.428	3.906
336.428	3.896
337.428	3.883
338.428	3.869
339.375	3.856
340.375	3.836
341.375	3.816
342.375	3.794
343.375	3.773
344.375	3.75
345.375	3.728
346.375	3.705
347.375	3.681
348.375	3.657
349.375	3.632
350.375	3.607
351.375	3.581
352.375	3.554
353.375	3.527
354.375	3.499
354.401	3.497
355.401	3.473
356.401	3.452
357.401	3.43
358.401	3.407
359.401	3.38
360.401	3.351
361.401	3.318
362.401	3.282
363.401	3.244
364.401	3.206
365.401	3.17
365.891	3.155
