Uv/Vis Spectrum: 2,3-dihydro-6,7-dimethyl-2-thioxo-4(1H)-pteridinone
Formula: C8H8N4OS
CAS: 54030-51-2
Melting point: 280-285
Instrument: Cary 14 PM-50
Origin: INSTITUTE OF ENERGY PROBLEMS OF CHEMICAL PHYSICS, RAS
Wavelength (nm)	Logarithm epsilon
220.461	4.016
221.461	4.027
222.461	4.033
223.461	4.036
224.461	4.036
225.461	4.033
226.461	4.028
227.461	4.023
228.461	4.016
229.461	4.01
230.461	4.004
231.461	3.999
232.461	3.994
233.461	3.991
234.461	3.989
235.461	3.988
236.461	3.989
237.461	3.991
238.461	3.994
239.461	3.998
240.461	4.002
241.461	4.006
242.461	4.009
243.461	4.01
244.461	4.009
245.461	4.004
246.461	3.995
246.525	3.994
247.525	3.973
248.525	3.955
249.525	3.937
250.525	3.92
251.525	3.901
252.525	3.881
253.525	3.859
254.525	3.837
255.525	3.815
256.525	3.794
257.525	3.774
258.525	3.757
259.525	3.743
260.525	3.734
261.525	3.729
262.525	3.729
263.424	3.729
264.424	3.741
265.424	3.753
266.424	3.764
267.424	3.774
268.424	3.783
269.424	3.792
270.424	3.801
271.424	3.809
272.424	3.819
273.424	3.829
274.424	3.84
275.424	3.852
276.424	3.865
277.424	3.879
278.424	3.893
279.424	3.908
280.037	3.919
281.037	3.93
282.037	3.944
283.037	3.961
284.037	3.98
285.037	4.001
286.037	4.022
287.037	4.042
288.037	4.06
289.474	4.084
290.474	4.103
291.474	4.122
292.474	4.142
293.474	4.162
294.474	4.183
295.474	4.204
296.474	4.225
297.474	4.246
298.474	4.265
299.474	4.284
300.474	4.302
301.474	4.318
302.474	4.333
303.474	4.347
304.474	4.36
304.669	4.361
305.669	4.378
306.669	4.383
307.669	4.379
308.669	4.367
309.669	4.348
310.669	4.324
311.669	4.296
312.669	4.266
313.669	4.233
314.669	4.199
315.669	4.165
316.669	4.131
317.669	4.097
318.669	4.065
319.563	4.029
320.563	4.005
321.563	3.975
322.563	3.939
323.563	3.9
324.563	3.86
325.563	3.822
326.563	3.788
327.563	3.758
328.563	3.735
329.563	3.717
330.563	3.706
331.563	3.699
332.563	3.697
333.563	3.697
333.598	3.695
334.598	3.698
335.598	3.7
336.598	3.704
337.598	3.707
338.598	3.711
339.598	3.716
340.598	3.721
341.598	3.726
342.598	3.732
343.598	3.738
344.598	3.745
345.598	3.752
346.598	3.759
347.598	3.766
348.598	3.774
349.598	3.781
350.598	3.788
351.598	3.795
352.598	3.802
353.598	3.808
354.598	3.814
355.598	3.819
356.598	3.824
357.598	3.828
358.598	3.831
359.598	3.834
360.598	3.835
361.598	3.836
362.598	3.835
363.598	3.834
364.598	3.831
365.598	3.828
366.598	3.824
367.598	3.818
368.598	3.812
369.598	3.805
370.598	3.798
371.598	3.79
372.598	3.782
373.598	3.773
373.698	3.772
374.698	3.765
375.698	3.755
376.698	3.744
377.698	3.732
378.698	3.72
379.698	3.707
380.698	3.694
381.698	3.681
382.698	3.668
383.698	3.655
384.698	3.642
385.698	3.628
386.698	3.614
387.698	3.599
388.698	3.583
389.698	3.566
390.698	3.547
391.698	3.527
392.601	3.51
393.601	3.476
394.601	3.452
395.601	3.432
396.601	3.413
397.601	3.391
398.601	3.365
399.601	3.333
400.601	3.298
401.601	3.259
402.601	3.219
