Uv/Vis Spectrum: 3-methyl-1H-indole-2-acetic acid methyl ester
Formula: C13H13NO3
CAS: 54008-86-5
Melting point: 105-107
Instrument: Unicam SP 800
Origin: INSTITUTE OF ENERGY PROBLEMS OF CHEMICAL PHYSICS, RAS
Wavelength (nm)	Logarithm epsilon
228.061	4.26
229.061	4.265
230.061	4.269
231.061	4.273
232.061	4.275
233.061	4.275
234.061	4.274
235.061	4.271
236.061	4.267
237.061	4.26
238.061	4.252
239.061	4.242
240.061	4.229
241.061	4.214
242.061	4.198
243.061	4.179
244.061	4.158
245.061	4.135
246.061	4.11
247.061	4.084
248.061	4.056
249.061	4.027
250.061	3.996
251.061	3.964
252.061	3.931
253.061	3.898
254.061	3.865
255.061	3.831
256.061	3.798
257.061	3.765
258.061	3.734
259.202	3.7
260.202	3.67
261.202	3.647
262.202	3.628
263.202	3.612
264.202	3.598
265.202	3.586
266.202	3.575
267.202	3.566
268.202	3.559
269.202	3.556
270.202	3.556
271.202	3.559
272.202	3.567
273.202	3.577
274.568	3.592
275.568	3.603
276.568	3.613
277.568	3.622
278.568	3.63
279.568	3.638
280.568	3.644
281.568	3.651
282.568	3.659
283.568	3.67
284.568	3.684
284.584	3.685
285.519	3.699
286.584	3.707
287.584	3.711
288.584	3.709
289.49	3.706
290.102	3.701
291.327	3.701
292.598	3.707
293.532	3.719
293.933	3.732
294.933	3.747
295.933	3.756
296.933	3.756
297.933	3.746
298.741	3.735
299.275	3.725
300.275	3.717
301.275	3.719
302.275	3.727
303.275	3.74
304.275	3.755
305.275	3.769
306.275	3.783
306.346	3.782
307.346	3.799
308.346	3.815
309.346	3.831
310.346	3.848
311.346	3.864
312.346	3.881
313.346	3.898
314.346	3.915
315.346	3.932
316.346	3.95
317.346	3.967
318.346	3.984
319.346	4.001
320.346	4.018
321.346	4.035
322.346	4.051
323.346	4.067
324.346	4.082
325.346	4.096
326.346	4.11
327.346	4.124
328.346	4.136
329.346	4.148
330.346	4.159
331.346	4.169
332.346	4.178
333.346	4.187
334.346	4.194
335.346	4.201
336.346	4.207
337.346	4.212
338.346	4.216
339.346	4.22
340.346	4.223
341.346	4.225
342.346	4.226
343.346	4.226
344.346	4.225
345.346	4.223
346.346	4.22
347.346	4.215
348.346	4.209
349.346	4.201
350.346	4.191
351.346	4.178
352.346	4.162
353.346	4.142
354.346	4.119
355.346	4.09
356.346	4.055
357.346	4.013
358.346	3.963
359.346	3.904
360.346	3.834
361.531	3.73
362.143	3.658
362.755	3.552
363.368	3.474
363.98	3.369
364.592	3.272
365.204	3.182
365.817	3.068
