Uv/Vis Spectrum: tert-Butyl nitrite
Formula: C4H9NO2
CAS: 540-80-7
Boiling point: 62-63/ 754 mm
Instrument: Unicam SP 700
Origin: INSTITUTE OF ENERGY PROBLEMS OF CHEMICAL PHYSICS, RAS
Wavelength (nm)	Logarithm epsilon
188.67	2.947
188.75	2.947
188.83	2.949
188.9	2.949
188.98	2.951
189.06	2.954
189.13	2.954
189.21	2.956
189.29	2.956
189.36	2.958
189.44	2.958
189.52	2.96
189.6	2.962
189.67	2.962
189.75	2.964
189.83	2.964
189.91	2.966
190.53	2.977
191.15	2.988
191.78	3.001
192.42	3.011
193.06	3.024
193.7	3.037
194.35	3.05
195	3.06
195.65	3.071
196.31	3.082
196.98	3.09
197.65	3.101
198.32	3.109
199	3.116
199.68	3.124
200.37	3.135
201.06	3.141
201.76	3.148
202.46	3.156
203.17	3.163
203.88	3.167
204.6	3.176
205.32	3.18
206.05	3.186
206.78	3.188
207.52	3.195
208.26	3.199
209.01	3.201
209.76	3.208
210.52	3.212
211.29	3.214
212.06	3.218
212.83	3.221
213.62	3.223
214.4	3.225
215.2	3.229
215.99	3.231
216.8	3.233
217.61	3.233
218.43	3.233
219.25	3.235
220.08	3.235
220.92	3.233
221.76	3.233
222.61	3.233
223.46	3.233
224.32	3.231
225.19	3.229
226.07	3.223
226.95	3.218
227.84	3.212
228.73	3.208
229.64	3.199
230.55	3.191
231.46	3.186
232.39	3.176
233.32	3.167
234.26	3.156
235.21	3.146
236.16	3.135
237.13	3.122
238.1	3.105
239.07	3.092
240.06	3.08
241.06	3.062
242.06	3.043
243.07	3.022
244.09	3.003
245.12	2.979
246.16	2.958
247.2	2.936
248.26	2.907
249.32	2.883
250.39	2.851
251.48	2.823
252.57	2.793
253.67	2.761
254.78	2.731
255.9	2.699
257.03	2.67
258.17	2.637
259.32	2.603
260.49	2.567
261.66	2.533
262.84	2.497
264.03	2.46
265.24	2.422
266.45	2.385
267.68	2.345
268.91	2.304
270.16	2.257
271.42	2.215
272.7	2.172
273.98	2.123
275.28	2.08
276.59	2.035
277.91	1.99
279.24	1.948
280.59	1.899
281.95	1.856
283.32	1.809
284.71	1.764
286.11	1.711
287.52	1.668
288.95	1.619
290.39	1.57
291.85	1.518
293.32	1.476
294.81	1.427
296.31	1.384
297.83	1.339
299.36	1.294
300.91	1.251
302.47	1.209
304.05	1.17
305.65	1.134
307.27	1.102
308.9	1.072
311.38	1.034
312.87	1.021
314.61	1.009
315.58	1.003
316.46	0.995
316.89	0.991
317.32	0.987
317.76	0.982
318.19	0.982
318.63	0.987
319.06	0.993
319.5	0.997
319.94	0.999
320.38	0.999
320.82	0.998
321.27	0.993
321.71	0.987
322.13	0.985
322.6	0.985
323.05	0.987
323.5	0.991
323.95	1.004
324.4	1.017
324.76	1.021
325.31	1.023
325.76	1.019
326.22	1.014
326.68	1.014
327.14	1.019
327.6	1.036
328.06	1.057
328.52	1.078
328.99	1.1
329.45	1.121
329.92	1.14
330.39	1.145
330.86	1.145
331.33	1.14
331.8	1.125
332.28	1.108
332.75	1.102
333.23	1.1
333.71	1.098
334.18	1.1
334.67	1.102
335.15	1.106
335.63	1.113
336.12	1.119
336.6	1.13
337.09	1.143
337.58	1.158
338.07	1.179
338.56	1.202
339.05	1.226
339.55	1.251
340.05	1.288
340.54	1.324
341.04	1.386
341.54	1.39
342.04	1.39
342.55	1.386
343.05	1.373
343.56	1.326
344.07	1.294
344.58	1.273
345.09	1.258
345.6	1.251
346.11	1.249
346.63	1.249
347.15	1.251
347.67	1.258
348.19	1.269
348.71	1.281
349.23	1.296
349.76	1.32
350.28	1.343
350.81	1.367
351.34	1.401
351.87	1.446
352.4	1.495
352.94	1.595
353.48	1.632
354.01	1.636
354.55	1.636
355.09	1.632
355.64	1.585
356.18	1.527
356.73	1.489
357.27	1.456
357.82	1.427
358.38	1.405
358.93	1.386
359.48	1.38
360.04	1.377
360.6	1.375
361.16	1.377
361.72	1.382
362.28	1.388
362.85	1.405
363.41	1.429
363.98	1.454
364.55	1.495
365.12	1.546
365.7	1.589
366.27	1.636
366.85	1.676
367.43	1.728
368.01	1.764
368.59	1.766
369.18	1.747
369.77	1.702
370.35	1.595
370.94	1.54
371.54	1.489
372.13	1.454
372.73	1.414
373.32	1.384
373.92	1.373
374.53	1.369
375.13	1.371
375.74	1.373
376.34	1.38
376.95	1.405
377.56	1.456
378.18	1.499
378.79	1.536
379.41	1.578
380.03	1.617
380.65	1.657
381.28	1.702
381.9	1.751
382.53	1.792
383.16	1.837
383.79	1.839
384.43	1.824
385.06	1.753
385.7	1.702
386.34	1.64
386.98	1.585
387.63	1.538
388.28	1.493
388.92	1.456
389.58	1.418
390.23	1.386
390.88	1.367
391.54	1.363
392.2	1.36
392.86	1.36
393.53	1.363
394.2	1.369
394.86	1.388
395.54	1.424
396.21	1.454
396.88	1.489
397.56	1.516
398.24	1.546
398.93	1.597
399.61	1.619
400.3	1.647
400.99	1.659
401.68	1.662
402.38	1.659
403.07	1.636
403.77	1.58
404.47	1.508
405.18	1.448
405.88	1.395
406.59	1.343
407.31	1.305
408.02	1.241
408.74	1.183
409.46	1.128
410.18	1.072
410.9	1.019
411.63	0.976
412.36	0.942
413.09	0.908
413.82	0.884
414.56	0.863
415.3	0.835
416.04	0.814
416.79	0.797
417.54	0.773
418.29	0.76
419.04	0.741
419.8	0.724
420.56	0.711
421.32	0.696
422.08	0.681
422.85	0.668
423.62	0.66
424.39	0.662
