Uv/Vis Spectrum: 3,6,7-trimethyl-2-(methylthio)-4(3H)-pteridinone
Formula: C10H12N4OS
CAS: 54030-45-4
Melting point: 187
Instrument: Cary 14 PM-50
Origin: INSTITUTE OF ENERGY PROBLEMS OF CHEMICAL PHYSICS, RAS
Wavelength (nm)	Logarithm epsilon
221.129	3.932
221.372	3.932
221.615	3.932
221.858	3.932
222.1	3.932
222.343	3.932
222.586	3.932
222.829	3.932
223.072	3.932
223.227	3.931
224.227	3.935
225.227	3.939
226.227	3.944
227.227	3.95
228.227	3.958
229.227	3.966
230.227	3.977
231.227	3.989
232.227	4.002
233.227	4.017
234.227	4.033
235.227	4.05
236.227	4.067
237.227	4.085
238.227	4.102
239.227	4.119
240.227	4.135
241.227	4.149
242.227	4.162
243.227	4.173
244.227	4.181
245.227	4.186
246.227	4.188
247.227	4.186
248.227	4.182
249.227	4.173
250.227	4.162
251.199	4.146
252.199	4.133
253.199	4.118
254.199	4.102
255.199	4.085
256.199	4.069
257.199	4.054
258.199	4.04
259.199	4.027
260.199	4.016
261.199	4.007
262.199	4
263.199	3.995
264.199	3.993
265.199	3.992
266.199	3.993
267.199	3.996
268.199	4.001
269.199	4.007
270.199	4.014
271.199	4.022
272.199	4.03
273.199	4.039
274.199	4.047
275.199	4.056
276.199	4.065
277.199	4.074
278.199	4.084
279.199	4.095
279.87	4.105
280.87	4.114
281.87	4.124
282.87	4.135
283.87	4.145
284.87	4.152
285.87	4.157
286.87	4.158
287.87	4.156
288.87	4.151
289.87	4.141
290.87	4.128
291.87	4.112
292.87	4.093
293.87	4.07
294.87	4.046
295.87	4.019
296.87	3.991
297.87	3.96
298.87	3.929
299.87	3.896
300.849	3.864
301.849	3.831
302.849	3.805
303.849	3.785
304.849	3.769
305.849	3.758
306.849	3.75
307.849	3.745
308.849	3.742
309.849	3.741
310.849	3.742
311.849	3.744
312.849	3.747
313.849	3.751
314.849	3.756
315.849	3.762
316.849	3.768
317.849	3.775
318.849	3.782
319.849	3.79
320.849	3.798
321.849	3.808
322.849	3.817
323.849	3.827
324.849	3.837
325.849	3.848
326.849	3.859
327.849	3.87
328.821	3.878
329.821	3.888
330.821	3.896
331.821	3.901
332.821	3.904
333.821	3.904
334.821	3.903
335.821	3.899
336.821	3.893
337.821	3.886
338.821	3.877
339.821	3.867
340.821	3.856
341.821	3.844
342.821	3.831
343.821	3.818
344.821	3.804
345.821	3.79
346.821	3.776
347.821	3.76
348.821	3.744
349.567	3.734
350.567	3.711
351.567	3.689
352.567	3.668
353.567	3.647
354.567	3.625
355.567	3.601
356.567	3.577
357.567	3.551
358.567	3.525
359.567	3.499
360.29	3.478
361.29	3.454
362.29	3.422
363.29	3.381
364.29	3.328
365.29	3.267
