Uv/Vis Spectrum: Cyclobutyl phenyl ketone
Formula: C11H12O
CAS: 5407-98-7
Boiling point: 260
Instrument: n.i.g.
Origin: INSTITUTE OF ENERGY PROBLEMS OF CHEMICAL PHYSICS, RAS
Wavelength (nm)	Logarithm epsilon
210.058	2.40573
210.359	2.40445
220.001	3.37754
220.317	3.39172
220.632	3.40591
220.944	3.42011
221.256	3.43432
221.566	3.44853
221.876	3.46274
222.185	3.47696
222.494	3.49118
222.802	3.50541
223.11	3.51964
223.419	3.53386
223.728	3.54809
224.037	3.56232
224.348	3.57654
224.659	3.59077
224.972	3.60499
225.287	3.6192
225.603	3.63341
225.921	3.64762
226.241	3.66182
226.564	3.67601
226.889	3.69019
227.217	3.70437
227.548	3.71854
227.882	3.73269
228.22	3.74683
228.562	3.76097
228.907	3.77509
229.256	3.7892
229.61	3.80329
229.968	3.81737
230.331	3.83143
230.699	3.84547
231.073	3.8595
231.451	3.87351
231.835	3.8875
232.225	3.90147
232.621	3.91542
233.024	3.92935
233.433	3.94326
233.848	3.95715
234.27	3.97101
234.7	3.98484
235.137	3.99865
235.137	3.99865
235.617	4.01009
236.132	4.02235
236.693	4.03496
237.309	4.04746
237.991	4.05937
238.749	4.07023
239.595	4.07957
240.539	4.08692
241.591	4.09181
242.762	4.09378
244.062	4.09235
245.502	4.08706
245.502	4.08706
246.538	4.07437
247.451	4.06026
248.254	4.04505
248.965	4.02902
249.6	4.01246
250.173	3.99567
250.701	3.97893
251.201	3.96255
251.201	3.96255
251.531	3.94857
251.855	3.93455
252.171	3.92051
252.48	3.90644
252.783	3.89235
253.078	3.87823
253.368	3.86409
253.651	3.84992
253.928	3.83574
254.198	3.82153
254.464	3.80729
254.723	3.79304
254.977	3.77877
255.226	3.76449
255.47	3.75018
255.708	3.73585
255.942	3.72152
256.171	3.70716
256.396	3.69279
256.617	3.6784
256.833	3.66401
257.046	3.6496
257.255	3.63517
257.46	3.62074
257.661	3.6063
257.86	3.59184
258.055	3.57738
258.248	3.56291
258.437	3.54844
258.624	3.53396
258.809	3.51947
258.991	3.50497
259.171	3.49048
259.35	3.47598
259.526	3.46147
259.701	3.44697
259.875	3.43246
260.047	3.41796
260.219	3.40345
260.389	3.38895
260.558	3.37445
260.728	3.35995
260.896	3.34545
261.065	3.33096
261.233	3.31648
261.401	3.302
261.57	3.28752
261.739	3.27306
261.909	3.2586
262.079	3.24415
262.251	3.22971
262.423	3.21529
262.597	3.20087
262.597	3.20087
262.872	3.18519
263.152	3.1696
263.442	3.15409
263.743	3.13864
264.058	3.12325
264.39	3.1079
264.743	3.09257
265.118	3.07726
265.519	3.06196
265.947	3.04665
266.408	3.03133
266.901	3.01597
267.432	3.00057
268.002	2.98512
268.002	2.98512
268.995	2.97535
269.935	2.97136
271.568	2.97018
271.568	2.97018
273.218	2.97868
274.829	2.98707
276.475	2.99423
278.227	2.99906
280.156	3.00044
280.156	3.00044
281.361	2.9893
282.426	2.97811
283.371	2.96677
284.214	2.9552
284.506	2.96067
284.684	2.95777
284.868	2.95481
284.977	2.94331
285.062	2.95174
285.679	2.93101
286.338	2.9182
286.975	2.90481
287.61	2.89074
288.261	2.8759
288.949	2.86021
288.949	2.86021
289.41	2.84409
289.871	2.82795
290.334	2.81177
290.798	2.79558
291.266	2.77937
291.736	2.76316
291.736	2.76316
291.987	2.74745
292.237	2.73173
292.488	2.71602
292.739	2.70031
292.989	2.68459
293.24	2.66888
293.491	2.65316
293.741	2.63745
293.992	2.62174
294.243	2.60602
294.493	2.59031
294.744	2.57459
294.995	2.55888
295.246	2.54317
295.496	2.52745
