Uv/Vis Spectrum: 2,3-dihydro-1,3dimethyl-2-thioxo-4(1H)-pteridinone
Formula: C8H8N4OS
CAS: 54030-38-5
Melting point: 225
Instrument: Cary 14 PM-50
Origin: INSTITUTE OF ENERGY PROBLEMS OF CHEMICAL PHYSICS, RAS
Wavelength (nm)	Logarithm epsilon
208.663	3.939
209.663	3.9
210.663	3.869
211.663	3.846
212.663	3.83
213.663	3.821
214.663	3.819
215.663	3.821
216.663	3.828
217.663	3.837
218.663	3.849
219.663	3.861
220.663	3.874
221.663	3.886
222.663	3.896
223.663	3.905
224.663	3.91
225.663	3.913
226.663	3.912
227.663	3.908
228.663	3.9
229.663	3.889
230.663	3.876
231.663	3.86
232.663	3.843
233.663	3.824
234.663	3.805
235.663	3.785
236.663	3.767
237.663	3.749
238.663	3.733
239.663	3.718
240.663	3.703
241.663	3.688
242.663	3.672
242.927	3.666
243.927	3.65
244.927	3.635
245.927	3.623
246.927	3.612
247.927	3.604
248.927	3.598
249.927	3.594
250.927	3.593
251.927	3.594
252.927	3.598
253.927	3.603
254.927	3.611
255.927	3.621
256.927	3.633
257.927	3.646
258.927	3.662
259.927	3.679
260.927	3.697
261.927	3.718
262.927	3.74
263.316	3.756
264.316	3.783
265.316	3.808
266.316	3.834
267.316	3.861
268.316	3.89
269.316	3.92
270.316	3.952
271.316	3.984
272.316	4.017
272.944	4.051
273.944	4.081
274.944	4.119
275.944	4.162
276.944	4.207
277.944	4.249
278.944	4.287
279.944	4.318
280.944	4.341
281.944	4.354
282.944	4.358
283.944	4.354
284.944	4.343
285.944	4.328
286.254	4.324
287.254	4.314
288.254	4.29
289.254	4.256
290.254	4.215
291.254	4.171
292.254	4.126
293.254	4.081
294.254	4.037
295.254	3.996
296.254	3.956
297.254	3.918
298.254	3.88
299.254	3.841
300.129	3.808
301.129	3.754
302.129	3.712
303.129	3.679
304.129	3.655
305.129	3.636
306.129	3.623
307.129	3.613
308.129	3.607
309.129	3.604
310.129	3.602
311.129	3.603
312.129	3.605
313.129	3.608
314.129	3.613
315.129	3.619
316.129	3.626
317.129	3.634
318.129	3.644
319.129	3.654
319.952	3.664
320.952	3.673
321.952	3.684
322.952	3.695
323.952	3.707
324.952	3.72
325.952	3.733
326.952	3.747
327.952	3.761
328.952	3.775
329.952	3.79
330.952	3.804
331.952	3.818
332.952	3.832
333.952	3.845
334.952	3.858
335.952	3.87
336.952	3.881
337.952	3.891
338.952	3.9
339.952	3.909
340.952	3.916
341.952	3.922
342.952	3.927
343.952	3.931
344.952	3.935
345.952	3.937
346.952	3.938
347.952	3.939
348.27	3.937
349.27	3.938
350.27	3.937
351.27	3.934
352.27	3.929
353.27	3.922
354.27	3.914
355.27	3.904
356.27	3.893
357.27	3.881
358.27	3.868
359.27	3.855
360.27	3.841
361.27	3.827
362.27	3.812
363.27	3.796
364.27	3.78
365.27	3.764
366.27	3.748
367.27	3.731
368.27	3.713
369.27	3.695
370.27	3.676
371.27	3.657
372.27	3.636
373.27	3.614
374.27	3.591
375.27	3.567
376.021	3.546
377.021	3.517
378.021	3.492
379.021	3.47
380.021	3.447
381.021	3.424
382.021	3.399
383.021	3.371
384.021	3.341
385.021	3.308
386.021	3.274
387.021	3.239
388.021	3.204
389.021	3.171
