Uv/Vis Spectrum: 2,3-dihydro-1,6,7-trimethyl-2-thioxo-4(1H)-pteridinone
Formula: C9H10N4OS
CAS: 54030-39-6
Melting point: 290(dec.)
Instrument: Cary 14 PM-50
Origin: INSTITUTE OF ENERGY PROBLEMS OF CHEMICAL PHYSICS, RAS
Wavelength (nm)	Logarithm epsilon
218.916	4.142
219.168	4.144
219.42	4.144
219.672	4.147
219.72	4.147
220.72	4.154
221.72	4.159
222.72	4.161
223.72	4.161
224.72	4.158
225.72	4.152
226.72	4.144
227.72	4.132
228.72	4.119
229.72	4.103
230.72	4.086
231.72	4.068
232.72	4.048
233.72	4.028
234.72	4.008
235.72	3.989
236.72	3.97
237.72	3.952
238.72	3.935
239.72	3.92
240.72	3.906
241.72	3.894
242.72	3.883
243.72	3.873
244.671	3.864
245.671	3.852
246.671	3.845
247.671	3.843
248.671	3.844
249.671	3.849
250.671	3.856
251.671	3.866
252.671	3.878
253.671	3.893
254.671	3.909
255.671	3.929
256.671	3.95
257.671	3.974
258.354	3.986
259.354	4.022
260.354	4.054
261.354	4.083
262.354	4.113
263.354	4.144
264.354	4.177
265.354	4.209
266.354	4.239
267.354	4.264
267.476	4.267
268.476	4.282
269.476	4.295
270.476	4.305
271.476	4.313
272.476	4.317
273.476	4.318
274.476	4.316
275.476	4.311
276.476	4.303
277.476	4.292
278.476	4.278
279.476	4.263
280.476	4.245
281.476	4.226
282.476	4.206
283.476	4.185
284.476	4.163
285.476	4.141
286.476	4.12
287.476	4.098
288.476	4.076
289.476	4.053
290.28	4.036
291.28	4.016
292.28	3.995
293.28	3.974
294.28	3.954
295.28	3.934
296.28	3.916
297.28	3.898
298.28	3.883
299.28	3.869
300.28	3.857
301.28	3.847
302.28	3.839
303.28	3.833
304.28	3.829
305.28	3.827
306.28	3.827
307.28	3.829
308.28	3.832
309.28	3.837
310.28	3.844
311.28	3.851
312.28	3.859
313.28	3.867
314.28	3.875
315.231	3.882
316.231	3.889
317.231	3.896
318.231	3.902
319.231	3.909
320.231	3.916
321.231	3.922
322.231	3.929
323.231	3.936
324.231	3.942
325.231	3.949
326.231	3.956
327.231	3.963
328.231	3.97
329.231	3.977
330.231	3.984
331.231	3.991
332.231	3.998
333.231	4.005
334.231	4.013
335.231	4.02
336.231	4.028
337.231	4.035
338.231	4.043
339.109	4.052
340.109	4.057
341.109	4.065
342.109	4.073
343.109	4.081
344.109	4.09
345.109	4.098
346.109	4.106
347.109	4.113
348.109	4.119
349.109	4.123
350.109	4.126
351.109	4.128
352.109	4.129
353.109	4.127
354.109	4.124
355.109	4.12
356.109	4.114
357.109	4.107
358.109	4.098
359.109	4.088
360.109	4.076
361.109	4.063
362.109	4.05
363.109	4.035
364.109	4.02
365.109	4.004
366.109	3.988
367.109	3.972
368.109	3.955
369.109	3.939
369.157	3.936
370.157	3.918
371.157	3.898
372.157	3.877
373.157	3.854
374.157	3.831
375.157	3.807
376.157	3.784
377.157	3.76
378.157	3.736
379.157	3.712
380.157	3.688
381.157	3.663
382.157	3.638
383.108	3.614
384.108	3.584
385.108	3.553
386.108	3.519
387.108	3.478
388.108	3.431
389.108	3.376
390.108	3.317
390.668	3.283
391.425	3.245
