Uv/Vis Spectrum: Phenol, 4-iodo-
Formula: C6H5IO
CAS: 540-38-5
Melting point: 93.5
Boiling point: 139 (5) dec
Instrument: Hilger E3 quartz spectrograph
Origin: INSTITUTE OF ENERGY PROBLEMS OF CHEMICAL PHYSICS, RAS
Wavelength (nm)	Logarithm epsilon
264.05	2.978
264.6	2.998
265.14	3.014
265.77	3.036
266.39	3.045
267.01	3.065
267.64	3.079
268.26	3.092
268.81	3.107
269.43	3.12
270.21	3.135
270.83	3.146
271.45	3.158
272.08	3.169
272.7	3.178
273.32	3.186
274.1	3.197
274.81	3.203
275.51	3.207
276.13	3.215
276.83	3.219
277.45	3.225
278.23	3.233
278.86	3.24
279.48	3.248
280.18	3.253
280.88	3.259
281.58	3.264
282.29	3.267
282.99	3.271
283.69	3.269
284.31	3.264
284.94	3.259
285.56	3.251
286.18	3.244
286.88	3.24
287.51	3.233
288.29	3.229
288.99	3.223
