Uv/Vis Spectrum: Chloroquine
Formula: C18H26ClN3
CAS: 54-05-7
Melting point: 189-197
Instrument: Beckman DU
Origin: INSTITUTE OF ENERGY PROBLEMS OF CHEMICAL PHYSICS, RAS
Wavelength (nm)	Logarithm epsilon
284.03	3.267
288	3.291
288.49	3.296
288.99	3.305
289.48	3.318
290.48	3.34
290.97	3.353
291.47	3.365
292.46	3.384
292.96	3.395
293.45	3.403
293.95	3.417
294.44	3.424
294.94	3.438
295.44	3.448
295.93	3.457
296.43	3.467
297.42	3.482
297.92	3.494
298.41	3.5
298.91	3.514
299.4	3.526
299.9	3.537
300.4	3.547
300.89	3.565
301.39	3.58
301.88	3.592
302.38	3.606
302.88	3.617
303.37	3.626
303.87	3.639
304.36	3.649
304.86	3.659
305.36	3.669
305.85	3.683
306.35	3.69
306.84	3.698
307.34	3.709
307.84	3.718
308.33	3.73
308.83	3.74
309.32	3.75
309.82	3.764
310.32	3.782
310.81	3.794
311.31	3.812
311.8	3.824
312.3	3.84
312.8	3.861
313.29	3.874
313.79	3.888
314.28	3.901
314.78	3.914
315.28	3.926
315.77	3.938
316.27	3.948
316.76	3.957
317.26	3.969
317.76	3.979
318.25	3.989
318.75	3.996
319.24	4.005
319.74	4.017
320.24	4.026
320.73	4.034
321.23	4.04
321.72	4.048
322.22	4.057
322.72	4.069
323.21	4.078
323.71	4.089
324.2	4.1
324.7	4.115
325.2	4.125
325.69	4.138
326.19	4.149
326.68	4.159
327.18	4.168
327.68	4.178
328.17	4.188
328.67	4.195
329.16	4.197
329.66	4.196
330.16	4.193
330.65	4.189
331.15	4.184
331.64	4.178
332.14	4.173
332.64	4.167
333.13	4.163
333.63	4.16
334.12	4.157
334.62	4.157
335.12	4.157
335.61	4.158
336.11	4.16
336.6	4.163
337.1	4.166
337.6	4.17
338.09	4.177
338.59	4.183
339.08	4.189
339.58	4.195
340.08	4.203
340.57	4.207
341.07	4.21
341.56	4.213
342.06	4.212
342.56	4.205
343.05	4.191
343.55	4.167
344.04	4.141
344.54	4.113
345.04	4.084
345.53	4.053
346.03	4.019
346.52	3.982
346.92	3.918
347.22	3.902
347.52	3.879
347.81	3.856
348.11	3.837
348.41	3.789
348.71	3.769
349	3.721
349.3	3.698
349.6	3.675
349.9	3.659
350.19	3.615
350.49	3.57
350.79	3.537
351.09	3.491
351.39	3.444
351.68	3.388
351.98	3.332
352.28	3.296
352.58	3.225
352.87	3.173
353.17	3.12
353.47	3.027
353.77	2.972
