Uv/Vis Spectrum: 2,3-dihydro-1-methyl-2thioxo-4(1H)-pteridinone
Formula: C7H6N4OS
CAS: 54030-37-4
Melting point: 295
Instrument: Cary 14 PM-50
Origin: INSTITUTE OF ENERGY PROBLEMS OF CHEMICAL PHYSICS, RAS
Wavelength (nm)	Logarithm epsilon
220.173	3.856
221.173	3.823
222.173	3.797
223.173	3.774
224.173	3.754
225.173	3.732
226.173	3.71
227.173	3.687
228.173	3.662
229.173	3.636
230.173	3.611
231.173	3.587
232.173	3.564
233.173	3.544
234.173	3.526
235.173	3.512
236.173	3.501
237.173	3.493
238.173	3.488
239.173	3.485
240.173	3.484
241.173	3.483
241.968	3.48
242.968	3.483
243.968	3.486
244.968	3.489
245.968	3.494
246.968	3.501
247.968	3.51
248.968	3.522
249.968	3.538
250.968	3.557
251.968	3.578
252.968	3.603
253.968	3.629
254.968	3.658
255.968	3.689
256.968	3.721
257.968	3.753
258.055	3.755
259.055	3.787
260.055	3.82
261.055	3.853
262.055	3.886
263.055	3.918
264.055	3.951
265.055	3.984
266.055	4.017
267.055	4.05
268.055	4.083
269.055	4.116
270.055	4.15
271.055	4.183
272.055	4.215
273.055	4.247
273.883	4.279
274.883	4.297
275.883	4.317
276.883	4.337
277.883	4.356
278.883	4.373
279.883	4.387
280.883	4.398
281.883	4.404
282.883	4.406
283.883	4.404
284.883	4.396
285.883	4.384
286.883	4.366
287.883	4.344
288.883	4.316
289.883	4.284
290.883	4.247
291.008	4.243
292.008	4.207
293.008	4.174
294.008	4.141
295.008	4.105
296.008	4.064
297.008	4.021
298.008	3.977
299.008	3.934
300.008	3.895
301.008	3.862
301.128	3.86
302.128	3.832
303.128	3.804
304.128	3.778
305.128	3.754
306.128	3.734
307.128	3.717
308.128	3.703
309.128	3.693
310.128	3.687
311.128	3.683
312.128	3.682
313.128	3.683
314.128	3.685
315.128	3.689
316.128	3.693
317.128	3.698
317.993	3.702
318.993	3.709
319.993	3.718
320.993	3.726
321.993	3.736
322.993	3.746
323.993	3.757
324.993	3.769
325.993	3.781
326.993	3.794
327.993	3.808
328.993	3.822
329.993	3.836
330.993	3.85
331.993	3.863
332.993	3.876
333.993	3.888
334.993	3.9
335.993	3.91
336.993	3.919
337.973	3.924
338.973	3.934
339.973	3.94
340.973	3.945
341.973	3.947
342.973	3.948
343.973	3.947
344.973	3.945
345.973	3.942
346.973	3.938
347.973	3.932
348.973	3.926
349.973	3.919
350.973	3.912
351.973	3.903
352.973	3.894
353.973	3.884
354.973	3.873
355.973	3.862
356.973	3.849
357.973	3.836
358.973	3.822
359.973	3.807
360.973	3.79
361.973	3.773
362.973	3.755
363.92	3.74
364.92	3.719
365.92	3.699
366.92	3.681
367.92	3.664
368.92	3.646
369.92	3.627
370.92	3.608
371.92	3.587
372.92	3.565
373.92	3.541
374.92	3.515
375.92	3.488
376.92	3.459
377.92	3.428
378.92	3.396
379.92	3.363
380.92	3.33
381.92	3.297
382.92	3.265
383.92	3.234
384.92	3.205
