Uv/Vis Spectrum: 3,6,7-trimethyl-2-(methylthoo)-4(3H)-pteridinethione
Formula: C10H12N4S2
CAS: 54030-46-5
Melting point: 193
Instrument: Cary 14 PM-50
Origin: INSTITUTE OF ENERGY PROBLEMS OF CHEMICAL PHYSICS, RAS
Wavelength (nm)	Logarithm epsilon
213.889	4.157
214.137	4.157
214.385	4.157
214.633	4.157
214.881	4.157
215.129	4.157
215.377	4.157
215.625	4.157
215.873	4.157
216.121	4.157
216.342	4.154
217.342	4.15
218.342	4.146
219.342	4.141
220.342	4.134
221.342	4.125
222.342	4.116
223.342	4.105
224.342	4.094
225.342	4.083
226.342	4.072
227.342	4.062
228.342	4.053
229.342	4.046
230.342	4.041
231.342	4.038
232.342	4.038
233.342	4.042
234.342	4.048
235.342	4.058
236.342	4.07
237.342	4.086
238.342	4.104
239.342	4.125
240.342	4.147
241.342	4.171
242.342	4.195
243.342	4.219
244.342	4.242
245.342	4.264
246.342	4.284
247.342	4.301
248.342	4.315
249.342	4.324
250.342	4.33
251.342	4.33
252.342	4.326
253.342	4.318
253.486	4.316
254.486	4.304
255.486	4.289
256.486	4.27
257.486	4.249
258.486	4.225
259.486	4.2
260.486	4.173
261.486	4.146
262.486	4.118
263.486	4.09
264.486	4.064
265.486	4.038
266.486	4.015
267.486	3.993
268.486	3.975
269.486	3.959
270.486	3.947
271.486	3.938
272.486	3.932
273.486	3.93
274.486	3.932
275.486	3.937
276.486	3.945
277.486	3.956
278.486	3.968
279.486	3.982
280.486	3.997
281.486	4.011
282.486	4.024
282.571	4.024
283.571	4.038
284.571	4.054
285.571	4.071
286.571	4.089
287.571	4.105
288.571	4.12
289.571	4.132
290.571	4.141
291.571	4.147
292.571	4.15
293.571	4.149
294.571	4.144
295.571	4.136
296.571	4.125
297.571	4.111
298.571	4.095
299.041	4.089
300.041	4.066
301.041	4.044
302.041	4.022
303.041	4.001
304.041	3.98
305.041	3.96
306.041	3.94
307.041	3.92
308.041	3.902
309.041	3.884
310.041	3.867
311.041	3.85
312.041	3.834
313.041	3.819
314.041	3.804
315.041	3.79
316.041	3.777
317.041	3.764
318.041	3.752
319.041	3.74
320.041	3.729
321.041	3.718
322.041	3.707
323.041	3.697
324.041	3.687
325.041	3.678
326.041	3.669
327.041	3.66
328.041	3.651
329.041	3.643
330.041	3.636
331.041	3.628
332.041	3.621
333.041	3.615
334.041	3.61
335.041	3.605
335.484	3.603
336.484	3.601
337.484	3.598
338.484	3.597
339.484	3.595
340.484	3.595
341.484	3.594
342.484	3.595
343.484	3.595
344.484	3.597
345.484	3.598
346.484	3.601
347.484	3.604
348.484	3.607
349.484	3.611
350.484	3.616
351.484	3.621
352.484	3.626
353.484	3.633
354.484	3.64
355.484	3.647
356.484	3.655
357.484	3.664
358.484	3.673
359.484	3.683
360.484	3.694
361.484	3.705
362.484	3.717
363.484	3.729
364.484	3.741
365.484	3.754
366.484	3.768
367.484	3.782
368.484	3.796
369.484	3.81
370.484	3.825
371.484	3.84
372.484	3.855
373.484	3.869
374.484	3.884
375.484	3.899
376.484	3.913
377.484	3.926
378.484	3.939
379.484	3.952
380.484	3.963
381.484	3.974
382.484	3.983
382.79	3.984
383.79	3.993
384.79	3.999
386.79	4.009
387.79	4.011
388.79	4.012
389.79	4.012
390.79	4.01
391.79	4.007
392.79	4.002
393.79	3.997
394.79	3.99
395.79	3.982
396.79	3.972
397.79	3.963
398.79	3.952
399.79	3.94
400.79	3.928
401.79	3.916
402.79	3.903
403.79	3.89
404.79	3.876
405.79	3.863
406.79	3.849
407.79	3.835
408.79	3.821
409.79	3.806
410.79	3.792
411.79	3.777
411.875	3.775
412.875	3.761
413.875	3.745
414.875	3.728
415.875	3.71
416.875	3.691
417.875	3.673
418.875	3.654
419.875	3.635
420.875	3.617
421.875	3.599
422.875	3.58
423.875	3.562
424.875	3.544
425.875	3.526
426.875	3.508
427.875	3.489
428.875	3.47
429.875	3.45
430.875	3.43
431.875	3.409
432.875	3.389
433.875	3.368
434.875	3.348
435.875	3.328
436.875	3.311
