Uv/Vis Spectrum: 3-methyl-2-(methylthio)-4(3H)-pteridinone
Formula: C8H8N4OS
CAS: 54030-44-3
Melting point: 213
Instrument: Cary 14 PM-50
Origin: INSTITUTE OF ENERGY PROBLEMS OF CHEMICAL PHYSICS, RAS
Wavelength (nm)	Logarithm epsilon
207.96	3.837
208.217	3.837
208.224	3.838
209.224	3.81
210.224	3.789
211.224	3.774
212.224	3.765
213.224	3.759
214.224	3.757
215.224	3.757
216.224	3.76
217.224	3.764
218.224	3.77
219.224	3.776
220.224	3.784
221.224	3.792
222.224	3.801
223.224	3.81
224.224	3.82
225.224	3.831
226.224	3.842
227.224	3.854
228.224	3.867
229.224	3.881
230.224	3.895
231.224	3.911
232.224	3.928
233.224	3.946
234.076	3.964
235.076	3.976
236.076	3.99
237.076	4.004
238.076	4.018
239.076	4.029
240.076	4.038
241.076	4.044
242.076	4.048
243.076	4.049
244.076	4.048
245.076	4.045
246.076	4.041
247.076	4.037
248.076	4.032
249.076	4.028
250.076	4.025
251.076	4.023
252.076	4.023
253.076	4.024
254.076	4.026
255.076	4.029
256.076	4.033
257.076	4.038
258.076	4.043
259.076	4.048
260.076	4.053
261.076	4.057
262.038	4.059
263.038	4.061
264.038	4.06
265.038	4.059
266.038	4.057
267.038	4.054
268.038	4.052
269.038	4.051
270.038	4.05
271.038	4.051
272.038	4.053
273.038	4.056
274.038	4.06
275.038	4.065
276.038	4.07
277.038	4.076
278.038	4.081
279.038	4.086
280.038	4.089
281.038	4.089
281.822	4.087
282.822	4.084
283.822	4.077
284.822	4.068
285.822	4.057
286.822	4.044
287.822	4.029
288.822	4.013
289.822	3.996
290.822	3.978
291.822	3.96
292.822	3.942
293.822	3.923
294.822	3.903
295.822	3.883
296.822	3.863
297.822	3.84
298.822	3.816
299.822	3.788
300.024	3.782
301.024	3.746
302.024	3.716
303.024	3.691
304.024	3.671
305.024	3.657
306.024	3.646
307.024	3.639
308.024	3.635
309.024	3.633
310.024	3.634
311.024	3.636
312.024	3.639
313.024	3.643
314.024	3.648
315.024	3.653
316.024	3.659
317.024	3.665
318.024	3.673
318.754	3.68
319.754	3.69
320.754	3.701
321.754	3.712
322.754	3.723
323.754	3.733
324.754	3.744
325.754	3.753
326.754	3.762
327.754	3.77
328.754	3.776
329.754	3.782
330.754	3.786
331.754	3.79
332.754	3.792
333.754	3.792
334.754	3.792
335.754	3.79
336.754	3.787
337.754	3.784
338.754	3.779
339.754	3.773
340.754	3.766
341.754	3.759
342.754	3.751
343.754	3.741
344.754	3.731
345.754	3.721
346.716	3.712
347.716	3.698
348.716	3.684
349.716	3.671
350.716	3.658
351.716	3.645
352.716	3.631
353.716	3.617
354.716	3.602
355.716	3.587
356.716	3.571
357.716	3.555
358.716	3.538
359.716	3.52
360.697	3.501
361.697	3.484
362.697	3.464
363.697	3.44
364.697	3.416
365.697	3.39
366.697	3.365
367.697	3.34
368.697	3.315
369.697	3.289
370.697	3.261
371.697	3.229
