Uv/Vis Spectrum: 2-Butenoic acid, 3-methyl-
Formula: C5H8O2
CAS: 541-47-9
Melting point: 68-69
Instrument: Unicam SP 500
Origin: INSTITUTE OF ENERGY PROBLEMS OF CHEMICAL PHYSICS, RAS
Wavelength (nm)	Logarithm epsilon
189.87	3.497
189.95	3.497
190.03	3.497
190.11	3.497
190.18	3.497
190.26	3.497
190.34	3.495
190.42	3.495
190.49	3.495
190.57	3.495
190.65	3.495
190.73	3.495
190.81	3.495
190.88	3.493
190.96	3.493
191.04	3.493
191.12	3.493
191.2	3.493
191.27	3.493
191.35	3.491
191.67	3.488
192.14	3.488
192.62	3.488
193.09	3.491
193.57	3.493
194.06	3.499
194.54	3.501
195.03	3.512
195.52	3.518
196.01	3.525
196.51	3.536
197	3.546
197.5	3.557
198	3.568
198.51	3.585
199.02	3.6
199.53	3.61
200.04	3.632
200.56	3.647
201.07	3.666
201.59	3.679
202.12	3.698
202.64	3.717
203.17	3.734
203.7	3.754
204.24	3.775
204.78	3.79
205.32	3.809
205.86	3.828
206.4	3.843
206.95	3.863
207.51	3.875
208.06	3.895
208.62	3.91
209.18	3.927
209.74	3.94
210.31	3.95
210.88	3.967
211.45	3.98
212.03	3.993
212.61	4.002
213.19	4.014
213.77	4.025
214.36	4.036
214.95	4.044
215.55	4.055
216.15	4.059
216.75	4.066
217.35	4.07
217.96	4.076
218.58	4.079
219.19	4.079
219.81	4.081
220.43	4.083
221.06	4.085
221.69	4.083
222.32	4.076
222.96	4.076
223.6	4.072
224.24	4.066
224.89	4.064
225.54	4.055
226.2	4.049
226.86	4.042
227.52	4.032
228.19	4.021
228.86	4.01
229.53	3.993
230.21	3.98
230.89	3.967
231.58	3.946
232.27	3.929
232.97	3.912
233.67	3.893
234.37	3.869
235.08	3.848
235.79	3.824
236.51	3.798
237.23	3.771
237.95	3.745
238.68	3.715
239.42	3.687
240.15	3.649
240.9	3.617
241.64	3.583
242.4	3.548
243.15	3.503
243.92	3.469
244.68	3.429
245.45	3.386
246.23	3.341
247.01	3.298
247.8	3.255
248.59	3.213
249.39	3.168
250.19	3.116
250.99	3.052
251.81	3.001
252.62	2.952
253.45	2.898
254.27	2.845
255.11	2.783
255.95	2.729
256.79	2.678
257.64	2.618
258.5	2.563
259.36	2.492
260.22	2.437
261.1	2.375
261.98	2.313
262.89	2.242
263.75	2.179
264.65	2.116
265.44	2.066
266.32	2.005
267.25	1.944
268.3	1.87
269.22	1.797
270.16	1.735
271.1	1.667
272.05	1.594
273	1.522
273.96	1.447
274.93	1.357
275.9	1.291
276.88	1.212
277.87	1.137
278.87	1.049
279.87	0.97
281.05	0.852
281.22	0.842
281.39	0.833
281.73	0.771
282.41	0.701
