Uv/Vis Spectrum: Tryptophane
Formula: C11H12N2O2
CAS: 54-12-6
Melting point: 289 dec
Instrument: Beckman quartz spectrograph
Origin: INSTITUTE OF ENERGY PROBLEMS OF CHEMICAL PHYSICS, RAS
Wavelength (nm)	Logarithm epsilon
232.06	3.83
232.21	3.815
232.42	3.793
232.74	3.748
233.06	3.688
233.31	3.605
233.43	3.554
233.59	3.517
233.84	3.481
234.05	3.459
234.32	3.436
234.54	3.42
234.73	3.408
234.95	3.396
235.18	3.384
235.46	3.374
235.71	3.366
235.95	3.359
236.17	3.351
236.44	3.341
236.68	3.333
236.92	3.327
237.17	3.319
237.41	3.313
237.65	3.309
237.9	3.307
238.14	3.302
238.38	3.298
238.63	3.294
238.87	3.291
239.11	3.289
239.36	3.285
239.6	3.283
239.84	3.28
240.09	3.278
240.33	3.276
240.57	3.273
240.82	3.273
241.06	3.271
241.3	3.271
241.55	3.269
241.79	3.269
242.03	3.269
242.27	3.269
242.52	3.269
242.76	3.269
243	3.271
243.25	3.271
243.49	3.271
243.73	3.273
243.98	3.276
244.22	3.276
244.46	3.278
244.71	3.28
244.95	3.283
245.19	3.285
245.44	3.289
245.68	3.294
245.92	3.296
246.17	3.3
246.41	3.304
246.65	3.304
246.9	3.309
247.14	3.313
247.38	3.315
247.63	3.319
247.87	3.321
248.11	3.325
248.36	3.327
248.6	3.331
248.84	3.335
249.09	3.339
249.33	3.344
249.57	3.347
249.82	3.351
250.06	3.357
250.3	3.362
250.54	3.37
250.79	3.377
251.03	3.386
251.28	3.395
251.52	3.4
251.76	3.407
252.01	3.412
252.25	3.419
252.49	3.425
252.74	3.432
252.98	3.438
253.22	3.446
253.47	3.453
253.71	3.461
253.95	3.464
254.2	3.47
254.44	3.477
254.68	3.483
254.93	3.488
255.17	3.495
255.41	3.499
255.66	3.503
255.9	3.512
256.14	3.519
256.39	3.527
256.63	3.534
256.87	3.54
257.16	3.545
257.36	3.551
257.6	3.552
257.85	3.557
258.09	3.56
258.33	3.565
258.58	3.568
258.82	3.572
259.06	3.576
259.31	3.579
259.55	3.584
259.79	3.587
260.04	3.591
260.28	3.597
260.52	3.601
260.77	3.607
261.01	3.613
261.25	3.617
261.5	3.621
261.74	3.625
261.98	3.628
262.23	3.631
262.47	3.636
262.71	3.639
262.96	3.645
263.2	3.649
263.44	3.652
263.69	3.658
263.93	3.662
264.17	3.665
264.42	3.669
264.66	3.674
264.9	3.677
265.15	3.68
265.39	3.683
265.88	3.687
266.12	3.69
266.36	3.692
266.79	3.698
266.85	3.699
267.09	3.702
267.35	3.706
267.58	3.708
267.82	3.71
268.07	3.712
268.31	3.714
268.55	3.715
268.8	3.716
269.04	3.718
269.28	3.72
269.53	3.722
269.77	3.723
270.01	3.723
270.26	3.724
270.5	3.725
270.74	3.725
270.99	3.725
271.23	3.726
271.47	3.727
271.72	3.727
271.96	3.728
272.2	3.729
272.45	3.729
272.69	3.729
272.93	3.73
273.18	3.731
273.42	3.732
273.66	3.733
273.91	3.734
274.15	3.736
274.39	3.737
274.64	3.738
274.88	3.74
275.12	3.741
275.36	3.742
275.61	3.743
275.85	3.743
276.09	3.743
276.34	3.744
276.58	3.744
276.82	3.744
277.07	3.743
277.31	3.742
277.55	3.741
277.8	3.74
278.04	3.739
278.28	3.737
278.53	3.734
278.77	3.732
279.01	3.728
279.26	3.725
279.5	3.721
279.74	3.72
279.99	3.716
280.23	3.713
280.47	3.709
280.72	3.704
280.96	3.7
281.21	3.697
281.41	3.693
281.69	3.686
281.93	3.682
282.18	3.677
282.4	3.672
282.67	3.664
282.91	3.657
283.16	3.651
283.4	3.646
283.65	3.642
283.88	3.638
284.12	3.634
284.37	3.629
284.6	3.624
284.87	3.617
285.34	3.604
285.58	3.6
285.83	3.592
286.07	3.586
286.31	3.58
286.56	3.573
286.8	3.568
287.01	3.56
287.29	3.551
287.52	3.543
287.74	3.534
288.01	3.525
288.26	3.517
288.5	3.509
288.75	3.501
289.01	3.491
289.27	3.48
289.52	3.468
289.74	3.454
289.96	3.439
290.21	3.418
290.45	3.397
290.99	3.339
291.3	3.307
291.62	3.278
292.02	3.245
292.5	3.21
292.82	3.187
293.13	3.164
293.37	3.146
293.61	3.121
293.86	3.097
294.1	3.076
294.34	3.05
294.59	3.03
294.83	3.01
295.07	2.993
295.32	2.975
295.48	2.96
295.8	2.937
296.05	2.921
296.29	2.905
296.53	2.895
296.78	2.878
297.02	2.86
297.23	2.851
297.45	2.841
297.65	2.829
297.99	2.817
298.24	2.81
298.48	2.803
298.72	2.796
298.97	2.789
299.21	2.782
299.45	2.775
299.74	2.765
299.99	2.756
300.26	2.747
300.53	2.739
300.72	2.733
300.96	2.727
301.16	2.721
301.45	2.714
301.65	2.708
301.85	2.701
302.14	2.693
