Uv/Vis Spectrum: 2,2'-(2-butene-1,4-diylidene) bis [2,3-dihydro-3-methylbenzothiazole]
Formula: C20H18N2S2
CAS: 54134-86-0
Melting point: 235-239
Instrument: Cary 14
Origin: INSTITUTE OF ENERGY PROBLEMS OF CHEMICAL PHYSICS, RAS
Wavelength (nm)	Logarithm epsilon
223.058	4.415
223.557	4.415
224.058	4.415
224.561	4.416
225.066	4.417
225.574	4.418
226.084	4.419
226.596	4.421
227.111	4.422
227.628	4.423
228.147	4.425
228.669	4.426
229.193	4.427
229.72	4.428
230.249	4.43
230.78	4.431
231.314	4.432
231.85	4.433
232.389	4.434
232.93	4.436
233.474	4.437
234.02	4.438
234.569	4.439
235.121	4.441
235.675	4.442
236.232	4.443
236.791	4.445
237.353	4.446
237.918	4.447
238.485	4.449
239.055	4.45
239.628	4.451
240.204	4.452
240.782	4.453
241.363	4.454
241.947	4.454
242.534	4.455
243.124	4.455
243.716	4.455
244.312	4.455
244.91	4.455
245.511	4.455
246.116	4.455
246.723	4.454
247.333	4.454
247.946	4.454
248.563	4.453
248.723	4.454
249.344	4.454
249.967	4.453
250.593	4.45
251.223	4.447
251.856	4.442
252.491	4.435
253.131	4.427
253.773	4.417
254.419	4.406
255.068	4.394
255.72	4.38
256.375	4.365
257.034	4.349
257.697	4.331
258.363	4.313
259.032	4.294
259.704	4.275
260.381	4.255
261.06	4.235
261.744	4.214
262.431	4.193
263.121	4.172
263.815	4.151
264.513	4.13
265.215	4.109
265.92	4.087
266.629	4.065
267.29	4.041
268.006	4.018
268.726	3.995
269.45	3.973
270.178	3.952
270.91	3.932
271.646	3.914
272.386	3.898
273.13	3.884
273.878	3.871
274.63	3.86
275.387	3.85
276.147	3.841
276.912	3.833
277.681	3.825
278.454	3.818
279.231	3.811
280.013	3.805
280.8	3.798
281.59	3.792
282.385	3.786
283.185	3.781
283.989	3.775
284.798	3.77
285.612	3.766
286.43	3.762
287.252	3.759
288.08	3.757
288.912	3.755
289.749	3.755
290.591	3.756
291.438	3.758
292.29	3.761
293.147	3.764
294.009	3.768
294.876	3.77
295.748	3.771
296.625	3.77
296.714	3.774
297.597	3.777
298.485	3.779
299.378	3.782
300.277	3.784
301.182	3.786
302.092	3.788
303.007	3.79
303.928	3.792
304.854	3.793
305.787	3.795
306.725	3.797
307.668	3.799
308.618	3.802
309.573	3.804
310.534	3.806
311.502	3.808
312.475	3.81
313.455	3.812
314.44	3.815
315.432	3.817
316.43	3.819
317.435	3.821
318.446	3.823
319.463	3.825
320.487	3.827
321.517	3.829
322.554	3.83
323.598	3.832
324.649	3.833
325.706	3.834
326.77	3.835
327.842	3.836
328.92	3.836
330.005	3.837
331.098	3.837
332.198	3.837
333.305	3.837
334.42	3.837
335.542	3.837
336.672	3.837
337.809	3.837
338.954	3.838
340.107	3.838
341.267	3.839
342.436	3.84
343.613	3.841
344.797	3.843
345.99	3.845
347.192	3.848
348.401	3.852
349.619	3.857
350.846	3.864
352.081	3.871
353.325	3.88
354.578	3.89
355.84	3.902
355.966	3.903
357.237	3.914
358.518	3.926
359.808	3.939
361.107	3.951
362.416	3.964
363.734	3.976
365.062	3.988
366.4	4.001
367.747	4.012
369.105	4.024
370.472	4.037
371.85	4.049
373.237	4.062
374.636	4.075
376.045	4.089
377.464	4.103
378.894	4.118
380.335	4.134
381.787	4.15
383.251	4.166
384.725	4.182
386.211	4.198
387.708	4.213
389.217	4.227
389.972	4.232
391.509	4.248
393.897	4.271
395.889	4.299
397.901	4.321
399.934	4.36
401.988	4.377
404.063	4.405
406.159	4.444
408.278	4.472
410.418	4.516
412.906	4.554
414.768	4.572
416.977	4.583
419.21	4.594
421.467	4.611
423.749	4.622
426.055	4.638
428.166	4.658
430.007	4.673
431.864	4.694
433.737	4.719
435.626	4.748
437.532	4.777
439.455	4.804
441.395	4.826
443.352	4.841
445.326	4.846
447.318	4.838
449.328	4.817
451.156	4.785
453.2	4.763
455.264	4.747
457.346	4.737
459.447	4.731
461.568	4.731
463.708	4.737
465.868	4.751
466.97	4.763
469.161	4.8
471.372	4.836
473.605	4.861
475.858	4.866
478.133	4.848
480.431	4.807
482.75	4.745
484.918	4.654
487.281	4.53
489.667	4.4
492.076	4.271
494.51	4.145
496.967	4.014
497.364	3.992
499.85	3.861
502.361	3.73
504.898	3.606
505.907	3.559
