Uv/Vis Spectrum: 1,2,6,7-tetrahydro-1,7-dimethyldipyrazolo[3,4-b:4',3'-e]pyridine-3,5-dione
Formula: C9H9N5O2
CAS: 54168-02-4
Melting point: >340
Instrument: Unicam SP-700C
Origin: INSTITUTE OF ENERGY PROBLEMS OF CHEMICAL PHYSICS, RAS
Wavelength (nm)	Logarithm epsilon
210.467	3.498
211.467	3.499
212.467	3.504
213.467	3.513
214.467	3.523
215.467	3.536
216.467	3.551
217.467	3.568
218.467	3.586
219.467	3.607
220.467	3.631
221.467	3.656
222.467	3.684
223.467	3.714
224.467	3.746
225.467	3.78
226.467	3.816
227.467	3.854
228.467	3.893
229.467	3.933
230.467	3.972
231.467	4.012
232.467	4.051
233.467	4.089
234.467	4.126
235.467	4.161
236.467	4.195
237.467	4.227
238.467	4.258
239.467	4.29
240.357	4.321
241.357	4.355
242.357	4.385
243.357	4.411
244.357	4.432
245.357	4.448
246.357	4.459
247.357	4.465
248.357	4.467
249.357	4.464
250.357	4.457
251.357	4.445
252.357	4.427
253.357	4.402
254.357	4.368
255.357	4.321
255.441	4.316
256.441	4.253
257.441	4.192
258.441	4.13
259.441	4.063
260.441	3.992
261.441	3.916
262.441	3.837
263.441	3.757
264.441	3.676
265.441	3.597
266.441	3.52
267.441	3.447
268.441	3.377
269.441	3.307
270.441	3.235
271.441	3.153
271.643	3.138
272.643	3.09
273.643	3.056
274.643	3.034
275.643	3.02
276.643	3.012
277.643	3.008
278.643	3.007
279.643	3.008
280.643	3.009
281.643	3.012
282.643	3.015
283.643	3.02
284.643	3.025
285.643	3.032
286.643	3.04
287.643	3.05
288.643	3.062
289.643	3.077
290.643	3.093
291.643	3.112
292.643	3.132
293.643	3.155
294.643	3.178
295.643	3.202
296.643	3.227
297.643	3.251
298.643	3.275
299.643	3.298
300.643	3.319
301.643	3.339
302.643	3.359
303.643	3.379
304.047	3.386
305.047	3.409
306.047	3.435
307.047	3.462
308.047	3.491
309.047	3.52
310.047	3.55
311.047	3.579
312.047	3.608
313.047	3.636
314.047	3.663
315.047	3.689
316.047	3.713
317.047	3.737
318.047	3.758
319.047	3.779
320.047	3.798
321.047	3.815
322.047	3.832
323.047	3.847
324.047	3.861
325.047	3.874
326.115	3.882
326.953	3.886
327.953	3.889
328.953	3.892
329.953	3.895
330.953	3.898
331.953	3.9
332.953	3.901
333.953	3.9
334.953	3.896
335.953	3.891
336.953	3.882
337.953	3.872
338.953	3.859
339.953	3.843
340.953	3.825
341.953	3.804
342.953	3.782
343.953	3.758
344.953	3.732
345.953	3.704
346.953	3.676
347.953	3.647
348.953	3.617
349.953	3.587
350.953	3.558
351.953	3.528
352.953	3.499
353.953	3.471
354.953	3.444
355.953	3.417
356.953	3.391
357.953	3.367
358.953	3.343
359.953	3.319
360.953	3.295
361.953	3.271
362.988	3.243
363.988	3.226
364.988	3.209
365.988	3.191
366.988	3.174
367.988	3.158
368.988	3.142
369.988	3.126
370.988	3.111
371.988	3.097
372.988	3.084
373.988	3.072
374.988	3.061
375.988	3.051
376.988	3.041
377.988	3.033
378.988	3.026
379.988	3.019
380.988	3.014
381.988	3.009
382.988	3.004
383.988	3
384.988	2.996
385.988	2.993
386.988	2.989
387.988	2.984
