Uv/Vis Spectrum: 7,9-dihydro-1,3,7-trimethyl-1H-purine-2,6,8(3H)-trione
Formula: C8H10N4O3
CAS: 5415-44-1
Melting point: 345 (dec.)
Instrument: Cary 15
Origin: INSTITUTE OF ENERGY PROBLEMS OF CHEMICAL PHYSICS, RAS
Wavelength (nm)	Logarithm epsilon
203.414	4.372
204.414	4.336
205.414	4.305
206.414	4.281
207.414	4.261
208.414	4.247
209.414	4.236
210.414	4.23
211.414	4.225
212.414	4.223
213.414	4.222
214.414	4.221
215.414	4.22
216.414	4.218
217.414	4.215
218.414	4.208
219.414	4.199
220.414	4.187
221.414	4.17
222.414	4.15
223.414	4.126
224.414	4.098
225.414	4.066
226.414	4.031
227.414	3.992
228.414	3.952
229.414	3.909
230.414	3.866
231.414	3.822
232.414	3.78
233.414	3.741
234.34	3.712
235.34	3.679
236.34	3.653
237.34	3.634
238.34	3.619
239.34	3.609
240.34	3.601
241.34	3.596
242.34	3.593
243.34	3.591
244.34	3.589
245.34	3.588
246.34	3.586
247.34	3.584
248.34	3.582
249.34	3.579
250.34	3.576
251.34	3.572
252.34	3.568
253.34	3.563
254.34	3.558
255.34	3.553
256.34	3.549
257.34	3.545
258.34	3.543
259.34	3.541
260.34	3.541
261.34	3.543
262.34	3.547
263.34	3.554
264.34	3.563
265.34	3.575
266.34	3.589
267.34	3.607
268.34	3.628
268.491	3.63
269.491	3.653
270.491	3.681
271.491	3.711
272.491	3.742
273.491	3.771
274.491	3.798
275.491	3.823
276.491	3.847
277.401	3.867
278.401	3.889
279.401	3.911
280.401	3.934
281.401	3.96
282.401	3.987
283.401	4.016
284.401	4.047
285.401	4.077
286.401	4.105
287.428	4.13
288.428	4.15
289.428	4.166
290.428	4.18
291.428	4.191
292.428	4.201
293.428	4.209
294.428	4.215
295.428	4.22
296.428	4.222
297.428	4.221
298.428	4.217
299.428	4.21
300.428	4.198
301.428	4.183
302.428	4.163
303.428	4.139
304.428	4.111
305.428	4.079
306.428	4.043
307.428	4.006
308.428	3.968
308.523	3.963
309.523	3.912
310.523	3.864
311.523	3.818
312.523	3.774
313.523	3.729
314.523	3.682
315.523	3.634
316.523	3.585
317.523	3.534
318.523	3.483
319.523	3.436
320.476	3.395
321.476	3.332
322.476	3.259
323.476	3.184
