Uv/Vis Spectrum: Cyclohexene,4,5-bis(methylene)-
Formula: C8H10
CAS: 54290-41-4
Boiling point: 90/ 100 mm
Instrument: Cary 12 UV
Origin: INSTITUTE OF ENERGY PROBLEMS OF CHEMICAL PHYSICS, RAS
Wavelength (nm)	Logarithm epsilon
208.833	3.66
209	3.66
209.166	3.662
209.5	3.665
209.666	3.666
209.701	3.667
210.701	3.673
211.701	3.678
212.701	3.684
213.701	3.688
214.701	3.692
215.701	3.696
216.701	3.698
217.701	3.7
218.701	3.701
219.701	3.7
220.701	3.699
221.701	3.697
222.701	3.694
223.557	3.691
224.557	3.686
225.557	3.681
226.557	3.675
227.557	3.668
228.557	3.66
229.557	3.651
230.557	3.642
231.557	3.631
232.557	3.62
233.605	3.605
234.605	3.587
235.605	3.569
236.605	3.55
237.605	3.53
238.605	3.511
239.605	3.491
240.605	3.47
240.608	3.468
241.608	3.447
242.608	3.425
243.608	3.4
244.608	3.373
245.608	3.344
246.608	3.313
247.608	3.28
248.593	3.241
249.593	3.197
250.593	3.153
251.593	3.11
252.593	3.068
253.593	3.029
254.593	2.991
255.593	2.955
256.593	2.918
257.593	2.882
258.593	2.844
259.593	2.803
260.593	2.758
261.593	2.709
262.593	2.654
263.593	2.593
264.593	2.526
