Uv/Vis Spectrum: 1,2,6,7,-tetrahydro-2,6-dimethyldipyrazolo[3,4-b:4',3'-e]pyridine-3,5-dione
Formula: C9H9N5O2
CAS: 54331-03-2
Melting point: >360
Instrument: Unicam SP-700C
Origin: INSTITUTE OF ENERGY PROBLEMS OF CHEMICAL PHYSICS, RAS
Wavelength (nm)	Logarithm epsilon
215.151	3.884
215.503	3.886
216.503	3.906
217.503	3.933
218.503	3.964
219.503	3.999
220.503	4.037
221.503	4.077
222.503	4.117
223.503	4.158
224.503	4.198
225.503	4.236
226.503	4.272
227.503	4.305
228.503	4.335
229.503	4.361
230.503	4.382
231.503	4.398
232.503	4.409
233.503	4.414
234.503	4.412
235.503	4.404
235.844	4.395
236.844	4.383
237.844	4.363
238.844	4.338
239.844	4.308
240.844	4.275
241.844	4.239
242.844	4.202
243.844	4.162
244.844	4.121
245.844	4.079
246.844	4.036
247.844	3.992
248.844	3.948
249.844	3.902
250.844	3.856
251.844	3.809
252.844	3.762
253.844	3.715
254.844	3.669
255.844	3.623
256.844	3.578
257.844	3.534
258.844	3.493
259.844	3.455
260.844	3.419
261.844	3.388
262.844	3.361
264.339	3.337
265.339	3.324
266.339	3.311
267.339	3.3
268.339	3.291
269.339	3.286
270.339	3.284
271.339	3.285
272.339	3.288
273.339	3.293
274.339	3.299
275.339	3.306
276.339	3.313
277.339	3.322
278.112	3.331
279.112	3.342
280.112	3.361
281.112	3.386
282.112	3.412
283.112	3.437
284.112	3.461
285.112	3.483
286.112	3.503
287.112	3.521
287.609	3.528
288.609	3.545
289.609	3.562
290.609	3.579
291.609	3.592
292.609	3.602
293.609	3.608
294.609	3.61
295.609	3.609
296.609	3.604
297.609	3.598
298.609	3.59
299.609	3.582
300.609	3.573
301.609	3.564
302.609	3.554
303.609	3.541
304.609	3.524
305.609	3.5
306.609	3.465
306.955	3.449
307.955	3.406
308.955	3.352
309.955	3.293
310.955	3.23
311.955	3.166
312.955	3.103
313.955	3.044
314.955	2.988
315.955	2.939
316.955	2.896
317.955	2.859
318.955	2.828
319.955	2.803
320.321	2.791
321.321	2.775
322.321	2.76
323.321	2.746
324.321	2.735
325.321	2.725
326.321	2.717
327.321	2.711
328.321	2.708
329.321	2.708
330.321	2.71
331.321	2.715
332.321	2.723
333.321	2.733
334.321	2.747
335.321	2.763
336.321	2.781
337.321	2.802
338.321	2.826
339.321	2.851
340.321	2.878
341.321	2.907
342.321	2.937
343.321	2.967
344.321	2.998
345.321	3.03
346.321	3.061
347.321	3.092
348.321	3.122
349.321	3.152
350.321	3.18
351.321	3.208
352.321	3.235
353.321	3.262
354.321	3.288
355.321	3.315
356.198	3.339
357.198	3.371
358.198	3.401
359.198	3.432
360.198	3.461
361.198	3.49
362.198	3.519
363.198	3.547
364.198	3.575
365.198	3.602
366.198	3.629
367.198	3.656
368.198	3.682
369.198	3.708
370.198	3.734
371.198	3.759
372.198	3.785
373.198	3.81
374.198	3.835
375.198	3.859
376.198	3.884
377.198	3.908
378.198	3.931
379.198	3.955
380.198	3.977
381.198	4
382.198	4.021
383.198	4.042
384.198	4.062
385.041	4.08
386.041	4.097
387.041	4.113
388.041	4.129
389.041	4.144
390.041	4.157
391.041	4.169
392.041	4.178
393.041	4.185
394.041	4.19
395.041	4.192
396.041	4.191
397.041	4.188
398.041	4.183
399.041	4.175
400.041	4.165
401.041	4.153
402.041	4.139
403.041	4.124
404.041	4.108
405.041	4.09
406.041	4.071
407.041	4.051
408.041	4.03
409.041	4.008
410.041	3.984
411.041	3.96
412.041	3.934
413.041	3.906
413.884	3.874
414.884	3.844
415.884	3.814
416.884	3.784
417.884	3.753
418.884	3.72
419.884	3.686
420.884	3.649
421.884	3.609
422.884	3.568
423.884	3.525
424.884	3.48
425.884	3.435
426.884	3.389
427.884	3.344
428.884	3.3
429.884	3.257
430.884	3.216
431.884	3.179
432.884	3.145
433.884	3.115
434.884	3.088
435.884	3.067
436.884	3.05
437.884	3.037
438.884	3.028
