Uv/Vis Spectrum: Anthra[2,3-c][1,2,5]selenadiazole-5,10-dione
Formula: C14H6N2O2Se
CAS: 54490-65-2
Melting point: 280-281
Instrument: Perkin-Elmer 402
Origin: INSTITUTE OF ENERGY PROBLEMS OF CHEMICAL PHYSICS, RAS
Wavelength (nm)	Logarithm epsilon
200.236	4.406
201.236	4.398
202.236	4.389
203.236	4.381
204.236	4.372
205.236	4.363
206.236	4.354
207.236	4.344
208.236	4.335
209.236	4.325
210.236	4.314
211.236	4.304
212.236	4.294
213.236	4.283
214.236	4.272
215.236	4.261
216.236	4.25
217.236	4.239
218.236	4.228
219.236	4.217
220.236	4.205
221.236	4.194
222.236	4.183
223.236	4.171
224.236	4.16
225.236	4.148
226.236	4.137
227.236	4.126
228.236	4.114
229.236	4.103
230.236	4.092
231.236	4.081
232.236	4.07
233.236	4.059
234.236	4.048
235.236	4.037
236.06	4.03
237.06	4.019
238.06	4.006
239.06	3.993
240.06	3.98
241.06	3.967
242.06	3.955
243.06	3.945
244.06	3.937
245.06	3.931
246.06	3.928
247.06	3.927
248.06	3.929
249.06	3.934
250.06	3.941
251.06	3.951
252.06	3.963
253.06	3.977
254.06	3.993
255.06	4.01
256.06	4.028
257.06	4.047
258.06	4.065
259.06	4.081
259.315	4.084
260.315	4.1
261.315	4.118
262.315	4.134
263.315	4.151
264.315	4.166
265.315	4.179
266.315	4.191
267.315	4.201
268.315	4.209
269.315	4.214
270.315	4.218
271.315	4.219
272.315	4.219
273.315	4.216
274.315	4.213
275.315	4.208
276.315	4.202
277.315	4.196
278.315	4.189
279.315	4.183
280.315	4.177
280.998	4.172
281.998	4.172
282.998	4.171
283.998	4.169
284.998	4.167
285.998	4.166
286.998	4.165
287.998	4.164
288.998	4.165
289.998	4.166
290.998	4.168
291.998	4.172
292.998	4.177
293.998	4.183
294.998	4.19
295.998	4.199
296.998	4.21
297.998	4.221
298.998	4.234
299.998	4.248
300.998	4.263
301.998	4.279
302.998	4.295
303.998	4.311
304.998	4.328
305.998	4.345
306.998	4.361
307.998	4.376
308.651	4.382
309.651	4.4
310.651	4.416
311.651	4.432
312.651	4.445
313.651	4.457
314.651	4.467
315.651	4.476
316.651	4.483
317.651	4.488
318.651	4.492
319.651	4.495
320.651	4.495
321.651	4.494
322.651	4.492
323.651	4.487
324.651	4.48
325.651	4.471
326.651	4.459
327.651	4.445
328.651	4.427
329.651	4.405
330.649	4.384
331.649	4.342
332.649	4.304
333.649	4.271
334.649	4.241
335.649	4.216
336.649	4.194
337.649	4.176
338.649	4.161
339.649	4.149
340.649	4.139
341.649	4.132
342.649	4.127
343.649	4.124
344.649	4.123
345.649	4.123
346.649	4.123
347.649	4.125
348.649	4.126
349.649	4.128
350.649	4.13
351.649	4.131
352.649	4.132
353.649	4.133
354.649	4.132
355.649	4.131
356.649	4.129
357.649	4.126
358.649	4.123
359.649	4.118
360.649	4.114
361.649	4.109
361.759	4.108
362.759	4.103
363.759	4.1
364.759	4.097
365.759	4.094
366.759	4.089
367.759	4.082
368.759	4.072
369.759	4.059
370.759	4.043
371.759	4.024
372.759	4.002
373.759	3.978
374.759	3.951
375.759	3.922
376.759	3.892
377.759	3.861
378.759	3.829
379.759	3.798
380.759	3.766
381.759	3.735
382.759	3.704
383.759	3.673
384.759	3.643
385.759	3.612
386.759	3.581
387.681	3.551
388.681	3.513
389.681	3.475
390.681	3.437
391.681	3.399
392.681	3.363
393.681	3.328
394.681	3.293
395.681	3.26
396.681	3.227
397.681	3.194
398.681	3.16
399.681	3.123
400.411	3.095
