Uv/Vis Spectrum: 1,3,5-Cycloheptatriene
Formula: C7H8
CAS: 544-25-2
Melting point: -79.5
Boiling point: 117; 60.5(122)
Instrument: Durrem-JACSO Model /ORD/UV/CD-5
Origin: INSTITUTE OF ENERGY PROBLEMS OF CHEMICAL PHYSICS, RAS
Wavelength (nm)	Logarithm epsilon
219.793	3.44449
219.945	3.43725
220.103	3.42979
220.274	3.42197
221.297	3.38034
221.576	3.36569
221.869	3.3504
222.168	3.33429
223.04	3.29908
223.32	3.28344
223.613	3.26705
223.912	3.24969
224.784	3.19987
225.153	3.1799
225.536	3.15855
225.926	3.13588
226.798	3.08875
227.16	3.06307
227.528	3.0355
227.91	3.00549
230.045	2.99888
230.593	2.99972
230.92	3.00554
231.307	3.02094
233.412	3.04673
234.285	3.06506
235.164	3.08216
236.057	3.09838
238.432	3.14832
239.215	3.16404
240.004	3.17902
240.807	3.19311
241.799	3.22668
242.462	3.24594
243.131	3.26438
243.813	3.28208
244.805	3.32118
245.226	3.33349
245.647	3.34519
246.068	3.35646
247.18	3.39609
247.391	3.40438
247.601	3.41229
247.812	3.41995
249.074	3.45065
249.405	3.45903
249.736	3.46726
250.066	3.47533
251.57	3.50246
251.99	3.51113
252.411	3.51954
252.832	3.52761
253.824	3.53735
254.066	3.54156
254.314	3.54574
254.576	3.54988
256.319	3.5682
257.316	3.57878
257.838	3.5833
258.334	3.58578
259.957	3.60002
261.118	3.6077
261.672	3.61049
262.091	3.61089
263.835	3.62181
264.407	3.62275
264.986	3.62362
265.579	3.62434
268.344	3.62717
270.602	3.62007
271.959	3.6145
273.575	3.60565
275.349	3.5916
276.101	3.58404
276.852	3.57627
277.604	3.5682
278.836	3.54988
279.326	3.54156
279.829	3.53309
280.339	3.52444
281.602	3.50037
282.053	3.49177
282.504	3.48281
282.955	3.47355
284.338	3.44829
284.828	3.43725
285.331	3.42582
285.841	3.41385
287.344	3.38034
287.765	3.37026
288.186	3.35995
288.606	3.34939
291.342	3.28827
291.584	3.27978
291.832	3.27081
292.094	3.26148
295.1	3.18538
295.31	3.17726
295.521	3.16857
295.731	3.1595
298.106	3.09838
298.858	3.0744
299.609	3.04876
300.361	3.02094
302.375	2.95257
302.985	2.93397
303.609	2.91381
304.239	2.8923
306.103	2.806
306.644	2.78627
307.185	2.76458
307.726	2.74121
310.131	2.66504
310.582	2.6534
311.033	2.64144
311.484	2.62914
314.13	2.52377
314.74	2.50757
315.363	2.49075
315.993	2.47324
318.128	2.3676
318.738	2.3442
319.362	2.31947
319.992	2.29324
322.126	2.19507
322.827	2.15978
323.54	2.12137
324.261	2.07923
326.876	2.02006
