Uv/Vis Spectrum: 1,1'-Biphenyl, 2-butyl-
Formula: C16H18
CAS: 54532-97-7
Instrument: unknown
Origin: INSTITUTE OF ENERGY PROBLEMS OF CHEMICAL PHYSICS, RAS
Wavelength (nm)	Logarithm epsilon
220.76	3.956
221.01	3.949
221.27	3.943
221.56	3.937
221.86	3.93
222.15	3.925
222.45	3.92
222.74	3.913
223.04	3.908
223.38	3.904
223.72	3.9
224.05	3.895
224.43	3.893
224.81	3.89
225.19	3.89
225.57	3.892
225.95	3.894
226.33	3.897
226.67	3.9
227.05	3.903
227.39	3.906
227.73	3.91
228.06	3.914
228.44	3.918
228.78	3.922
229.12	3.926
229.46	3.93
229.8	3.933
230.13	3.937
230.47	3.941
230.85	3.943
231.19	3.946
231.57	3.948
231.91	3.951
232.29	3.952
232.67	3.955
233.05	3.956
233.43	3.957
233.81	3.958
234.19	3.959
234.57	3.959
234.95	3.958
235.33	3.958
235.71	3.956
236.09	3.952
236.47	3.95
236.85	3.947
237.23	3.944
237.61	3.942
237.95	3.938
238.28	3.935
238.62	3.93
238.96	3.926
239.3	3.922
239.63	3.917
239.97	3.912
240.31	3.907
240.65	3.902
240.94	3.897
241.24	3.891
241.58	3.886
241.87	3.88
242.17	3.874
242.46	3.868
242.76	3.862
243.05	3.855
243.35	3.849
243.65	3.843
243.9	3.836
244.15	3.83
244.41	3.824
244.66	3.817
244.91	3.811
245.17	3.804
245.42	3.796
245.67	3.79
245.93	3.783
246.18	3.775
246.43	3.768
246.64	3.76
246.9	3.754
247.11	3.747
247.32	3.739
247.57	3.732
247.78	3.724
247.99	3.717
248.25	3.71
248.46	3.701
248.67	3.694
248.88	3.686
249.09	3.679
249.3	3.672
249.51	3.663
249.77	3.656
249.98	3.648
250.19	3.64
250.4	3.633
250.61	3.624
250.82	3.617
251.03	3.609
251.25	3.601
251.41	3.592
251.63	3.585
251.79	3.577
252.01	3.568
252.17	3.56
252.39	3.551
252.6	3.543
252.77	3.534
252.93	3.526
253.1	3.517
253.31	3.509
253.48	3.501
253.65	3.492
253.82	3.484
253.99	3.475
254.2	3.467
254.37	3.458
254.54	3.45
254.71	3.441
254.92	3.433
255.09	3.425
255.26	3.416
255.43	3.408
255.6	3.4
255.76	3.392
255.94	3.384
256.12	3.376
256.31	3.368
256.52	3.359
256.7	3.352
256.9	3.343
257.08	3.336
257.28	3.326
257.46	3.319
257.66	3.31
257.83	3.301
258.04	3.293
258.25	3.284
258.47	3.276
258.63	3.267
258.85	3.259
259.06	3.251
259.23	3.243
259.44	3.235
259.65	3.227
259.82	3.219
260.03	3.211
260.24	3.204
260.41	3.195
260.62	3.188
260.83	3.181
261.04	3.172
261.25	3.165
261.46	3.156
261.67	3.149
261.89	3.142
262.1	3.133
262.35	3.126
262.56	3.117
262.77	3.11
263.03	3.103
263.24	3.095
263.45	3.088
263.66	3.08
263.87	3.073
264.08	3.066
264.29	3.058
264.5	3.051
264.76	3.043
264.97	3.036
265.18	3.028
265.43	3.02
265.64	3.013
265.86	3.005
266.07	2.998
266.28	2.991
266.49	2.982
266.7	2.975
266.95	2.967
267.16	2.959
267.38	2.952
267.63	2.944
267.84	2.937
268.05	2.928
268.26	2.921
268.47	2.914
268.68	2.905
268.9	2.897
269.11	2.889
269.32	2.882
269.53	2.875
269.74	2.867
269.91	2.859
270.16	2.851
270.33	2.843
270.54	2.835
270.75	2.827
270.96	2.82
271.18	2.811
271.39	2.804
271.6	2.795
271.81	2.787
272.02	2.778
272.23	2.771
272.44	2.763
272.65	2.755
272.86	2.747
273.03	2.738
273.24	2.731
273.46	2.722
273.62	2.714
273.84	2.707
274.05	2.698
274.26	2.69
