Uv/Vis Spectrum: 4,5-dihydro-3-phenyl-4-(2-propenyl)-5-thioxo-1H-1,2,4-triazole-1-propanoic acid
Formula: C14H15N3O2S
CAS: 54559-52-3
Melting point: 50-50.5
Instrument: SF-4
Origin: INSTITUTE OF ENERGY PROBLEMS OF CHEMICAL PHYSICS, RAS
Wavelength (nm)	Logarithm epsilon
237.718	3.372
239.218	3.453
240.718	3.546
242.218	3.635
243.718	3.714
245.218	3.788
246.718	3.86
248.218	3.923
248.247	3.923
249.747	3.985
251.247	4.034
252.747	4.076
254.247	4.109
255.73	4.129
257.23	4.154
258.73	4.16
260.23	4.148
261.73	4.118
263.23	4.081
264.693	4.053
266.193	4.025
267.693	3.995
269.193	3.961
270.693	3.922
272.193	3.876
273.655	3.823
275.155	3.775
276.655	3.749
278.155	3.733
279.655	3.719
281.155	3.704
282.655	3.686
284.155	3.666
285.576	3.642
287.076	3.603
288.576	3.562
290.076	3.521
291.576	3.472
