Uv/Vis Spectrum: 2,3,4,5,7-pentafluoro-7-methylbicyclo[4.2.0]octa-1,3,5-triene
Formula: C9H5F5
CAS: 54635-83-5
Boiling point: 65/ 15 mm
Instrument: Unicam SP 700
Origin: INSTITUTE OF ENERGY PROBLEMS OF CHEMICAL PHYSICS, RAS
Wavelength (nm)	Logarithm epsilon
220.104	3.187
221.104	3.102
222.104	3.037
223.104	2.985
224.104	2.936
225.104	2.888
226.104	2.835
227.104	2.777
228.104	2.712
229.049	2.645
230.049	2.577
231.049	2.519
232.049	2.466
233.049	2.416
234.049	2.369
235.049	2.326
235.977	2.291
236.977	2.269
237.977	2.251
238.977	2.238
239.977	2.228
240.977	2.223
241.977	2.221
242.977	2.222
242.992	2.222
243.992	2.226
244.992	2.232
245.992	2.24
246.992	2.248
247.992	2.259
248.992	2.27
249.992	2.282
250.992	2.294
251.992	2.307
252.992	2.32
253.992	2.333
254.992	2.346
255.992	2.359
256.955	2.373
257.955	2.389
258.955	2.403
259.955	2.415
260.955	2.423
261.955	2.425
262.955	2.422
262.986	2.422
263.986	2.415
264.986	2.402
265.88	2.386
266.88	2.357
267.88	2.325
268.88	2.285
269.88	2.234
270.88	2.168
271.88	2.08
272.88	1.968
273.88	1.827
274.93	1.699
275.93	1.584
275.965	1.589
