Uv/Vis Spectrum: (S)-alpha-methyl-4-pyridinemethanol
Formula: C7H9NO
CAS: 54656-96-1
Melting point: 63-65
Instrument: Unicam SP 700
Origin: INSTITUTE OF ENERGY PROBLEMS OF CHEMICAL PHYSICS, RAS
Wavelength (nm)	Logarithm epsilon
238.388	3.084
239.388	3.111
240.388	3.14
241.388	3.167
242.371	3.192
243.371	3.215
244.371	3.239
245.371	3.261
246.371	3.279
247.371	3.293
248.371	3.304
249.371	3.315
250.395	3.328
250.401	3.329
251.401	3.339
252.401	3.345
253.401	3.349
254.401	3.35
255.401	3.348
256.401	3.345
257.401	3.341
258.363	3.335
259.363	3.326
260.363	3.315
261.363	3.303
262.363	3.291
263.363	3.28
264.363	3.266
266.235	3.218
267.235	3.172
268.235	3.11
269.283	3.052
270.233	3.004
271.233	2.958
272.233	2.915
273.233	2.873
274.233	2.831
275.233	2.785
