Uv/Vis Spectrum: 1,3 Diphenylisobenzofuran
Formula: C20H14O
CAS: 5471-63-6
Melting point: 131
Instrument: unknown
Origin: INSTITUTE OF ENERGY PROBLEMS OF CHEMICAL PHYSICS, RAS
Wavelength (nm)	Logarithm epsilon
208.27	4.076
208.66	4.064
209.06	4.052
209.45	4.047
209.85	4.035
210.24	4.029
210.63	4.017
211.03	4.005
211.42	3.999
211.81	3.987
212.21	3.975
212.6	3.97
213	3.94
214.57	3.91
216.15	3.893
217.72	3.881
219.3	3.869
220.87	3.869
222.45	3.869
224.02	3.875
225.6	3.881
227.17	3.887
228.75	3.91
230.32	3.934
231.9	3.964
233.47	3.993
235.05	4.029
236.62	4.058
238.2	4.076
239.77	4.106
241.35	4.141
242.93	4.165
244.5	4.171
246.08	4.177
247.65	4.183
249.23	4.189
250.8	4.189
252.38	4.201
253.95	4.212
255.53	4.23
257.1	4.242
258.68	4.242
260.25	4.23
261.83	4.206
263.4	4.206
264.98	4.224
266.55	4.201
268.13	4.171
269.7	4.124
271.28	4.058
272.86	3.975
274.43	3.869
276.01	3.75
277.58	3.626
279.16	3.567
280.73	3.525
282.31	3.496
283.88	3.49
285.46	3.484
287.03	3.496
288.61	3.502
290.18	3.525
291.76	3.537
293.33	3.555
294.91	3.579
296.48	3.591
298.06	3.608
299.63	3.614
301.21	3.632
302.78	3.644
304.36	3.656
305.94	3.662
307.51	3.673
309.09	3.673
310.66	3.656
312.24	3.644
313.81	3.638
315.39	3.638
316.96	3.65
318.54	3.65
320.11	3.632
321.69	3.608
323.26	3.579
324.84	3.549
326.41	3.519
327.99	3.49
329.56	3.46
331.14	3.437
332.71	3.425
334.29	3.407
335.86	3.395
337.44	3.395
339.02	3.395
340.59	3.395
342.17	3.401
343.74	3.407
345.32	3.419
346.89	3.437
348.47	3.454
350.04	3.478
351.62	3.496
353.19	3.519
354.77	3.543
356.34	3.573
357.92	3.596
359.49	3.62
361.07	3.644
362.64	3.668
364.22	3.685
365.79	3.703
367.37	3.733
368.94	3.756
370.52	3.774
372.1	3.792
373.67	3.822
375.25	3.839
376.82	3.863
378.4	3.881
379.97	3.904
381.55	3.928
383.12	3.946
384.7	3.958
386.27	3.981
387.85	3.999
389.42	4.011
391	4.029
392.57	4.041
394.15	4.052
395.72	4.064
397.3	4.082
398.87	4.094
400.45	4.1
402.02	4.112
403.6	4.112
405.18	4.118
406.75	4.118
408.33	4.118
409.9	4.112
411.48	4.1
413.05	4.094
414.63	4.088
416.2	4.082
417.78	4.064
419.35	4.058
420.93	4.035
422.5	4.023
424.08	4.005
425.65	3.981
427.23	3.964
428.8	3.946
430.38	3.922
431.95	3.893
433.53	3.851
435.11	3.816
436.68	3.768
438.26	3.715
439.83	3.626
441.41	3.549
442.98	3.454
444.56	3.33
446.13	3.182
447.71	3.028
449.28	2.833
450.86	2.696
452.43	2.59
454.01	2.305
455.58	1.63
455.98	1.619
456.37	1.601
456.76	1.583
457.55	1.465
458.34	1.204
