Uv/Vis Spectrum: 5,7-dihydro-5-oxofuro[3,4-b]pyridine-7-acetic acid
Formula: C9H7NO4
CAS: 54886-05-4
Melting point: 163-164
Instrument: SF-4A
Origin: INSTITUTE OF ENERGY PROBLEMS OF CHEMICAL PHYSICS, RAS
Wavelength (nm)	Logarithm epsilon
221.378	3.31
221.455	3.298
222.255	3.187
223.055	3.104
223.855	3.042
224.655	2.998
225.455	2.967
226.255	2.946
227.055	2.932
227.855	2.924
228.655	2.92
229.455	2.919
230.255	2.919
231.055	2.92
231.855	2.922
232.655	2.925
233.455	2.929
234.255	2.933
235.055	2.94
235.855	2.947
236.655	2.957
237.455	2.969
238.255	2.982
239.055	2.997
239.855	3.013
240.772	3.03
241.572	3.045
242.372	3.06
243.172	3.078
243.972	3.098
244.772	3.119
245.572	3.142
246.372	3.167
247.172	3.192
247.972	3.219
248.772	3.246
249.572	3.273
250.372	3.3
251.172	3.328
251.972	3.355
252.772	3.381
253.572	3.407
254.372	3.431
255.172	3.454
255.972	3.476
256.772	3.496
257.572	3.514
258.372	3.53
259.172	3.544
259.972	3.555
260.772	3.563
261.572	3.569
262.372	3.571
263.172	3.571
263.972	3.566
264.772	3.558
265.572	3.547
266.372	3.532
267.172	3.512
267.972	3.488
268.772	3.46
269.67	3.423
270.47	3.382
271.27	3.346
272.07	3.312
272.87	3.275
273.67	3.233
274.47	3.182
275.27	3.118
276.07	3.039
276.87	2.94
277.67	2.818
