Uv/Vis Spectrum: 6,13-Methanobenzocyclododecene-15-one,7,8,9,10,11,12-hexahydro-
Formula: C17H18O
CAS: 55027-91-3
Instrument: Beckman DU
Origin: INSTITUTE OF ENERGY PROBLEMS OF CHEMICAL PHYSICS, RAS
Wavelength (nm)	Logarithm epsilon
218.87	4.518
223.49	4.592
225.5	4.626
226.48	4.647
227.26	4.66
228.01	4.674
228.96	4.682
229.84	4.692
230.72	4.697
231.6	4.699
232.39	4.698
233.61	4.69
234.93	4.67
235.77	4.653
237.46	4.614
238.13	4.594
239.14	4.551
242.54	4.322
245.92	4.131
246.51	4.116
247.61	4.097
248.42	4.087
249.24	4.083
250.14	4.08
250.89	4.077
251.78	4.079
252.68	4.08
254.07	4.087
255.97	4.1
257.75	4.12
260.22	4.151
264.51	4.204
266.19	4.218
267.89	4.226
268.73	4.226
270.59	4.227
272.66	4.232
273.79	4.234
274.67	4.236
275.49	4.232
276.31	4.226
277.19	4.218
278	4.209
278.95	4.197
279.89	4.186
280.56	4.176
281.41	4.165
282.28	4.151
283.1	4.131
284.22	4.107
286.05	4.069
287.43	4.04
288.62	4.005
289.98	3.957
291.69	3.897
293.34	3.847
295.31	3.786
298.31	3.704
299.76	3.667
302.93	3.601
306.76	3.536
309.3	3.497
310.94	3.478
312.65	3.47
314.37	3.463
316.52	3.453
318.81	3.448
321.97	3.435
325.73	3.412
329.58	3.379
333.55	3.334
336.34	3.295
337.81	3.267
339.52	3.23
340.56	3.205
344.79	3.104
