Uv/Vis Spectrum: 4-(1,1-dimethylethyl)-2-[(2,4-dinitrophenyl)azo]-6-methylphenol
Formula: C17H18N4O5
CAS: 55041-41-3
Melting point: 218
Instrument: unknown
Origin: INSTITUTE OF ENERGY PROBLEMS OF CHEMICAL PHYSICS, RAS
Wavelength (nm)	Logarithm epsilon
344.08	4.097
345.58	4.116
347.08	4.133
348.58	4.148
350.08	4.161
351.58	4.174
353.08	4.185
354.58	4.195
356.08	4.205
357.58	4.215
359.08	4.224
360.58	4.233
362.08	4.242
363.58	4.25
365.08	4.257
366.58	4.264
368.08	4.27
369.58	4.276
371.08	4.28
372.58	4.284
374.08	4.286
375.58	4.288
377.08	4.288
378.58	4.287
380.08	4.285
381.58	4.281
383.08	4.276
384.58	4.27
386.08	4.263
387.58	4.255
389.08	4.246
390.58	4.236
392.08	4.226
393.58	4.214
395.08	4.202
396.58	4.188
398.08	4.174
399.58	4.159
401.078	4.151
402.078	4.134
403.078	4.117
404.078	4.099
405.078	4.08
406.078	4.061
407.078	4.043
408.078	4.024
409.078	4.005
410.078	3.988
411.078	3.97
412.078	3.953
413.078	3.937
414.078	3.921
415.078	3.907
416.078	3.893
417.078	3.88
418.078	3.868
419.078	3.857
420.078	3.846
421.078	3.837
422.078	3.829
423.078	3.821
424.078	3.815
425.078	3.809
426.078	3.805
427.078	3.801
428.078	3.798
429.078	3.796
430.078	3.795
431.078	3.794
432.078	3.794
433.078	3.795
434.078	3.796
435.078	3.798
436.078	3.801
437.078	3.804
438.078	3.807
439.078	3.811
440.078	3.815
441.078	3.819
442.078	3.824
443.078	3.829
444.078	3.834
445.078	3.839
446.078	3.845
447.078	3.85
448.078	3.856
449.078	3.861
450.078	3.867
451.078	3.873
452.078	3.878
453.078	3.884
454.078	3.889
455.078	3.895
456.078	3.9
457.078	3.905
458.078	3.91
459.078	3.915
460.078	3.919
461.078	3.924
462.078	3.928
463.078	3.932
464.078	3.936
465.078	3.94
466.078	3.944
467.078	3.947
468.078	3.951
469.078	3.954
470.078	3.957
471.078	3.96
472.078	3.963
473.078	3.966
474.078	3.968
475.078	3.971
476.078	3.973
477.078	3.975
478.078	3.977
479.078	3.979
480.078	3.981
481.078	3.983
482.078	3.985
483.078	3.987
484.078	3.989
485.078	3.99
486.078	3.992
487.078	3.993
488.078	3.995
489.078	3.996
490.078	3.998
491.078	3.999
492.078	4
493.078	4.001
494.078	4.002
495.078	4.003
496.078	4.004
497.078	4.004
498.078	4.004
499.078	4.005
500.078	4.005
501.078	4.004
502.078	4.004
503.078	4.003
504.078	4.003
505.078	4.001
506.078	4
507.078	3.998
508.078	3.996
509.078	3.994
510.078	3.992
511.078	3.989
512.078	3.986
513.078	3.983
514.078	3.979
515.078	3.976
516.078	3.972
517.078	3.968
518.078	3.964
519.078	3.961
519.348	3.96
519.848	3.958
520.348	3.957
520.848	3.955
521.348	3.954
521.848	3.952
522.348	3.95
522.848	3.948
523.348	3.946
523.848	3.944
524.348	3.942
524.848	3.939
525.348	3.937
525.848	3.935
526.348	3.932
526.848	3.93
527.348	3.927
527.848	3.925
528.348	3.922
528.848	3.92
529.348	3.917
529.848	3.914
530.348	3.911
530.848	3.908
531.348	3.905
531.848	3.903
532.348	3.9
532.848	3.897
533.348	3.893
533.848	3.89
534.348	3.887
534.848	3.884
535.348	3.881
535.848	3.878
536.348	3.874
536.848	3.871
537.348	3.867
537.848	3.864
538.348	3.86
538.848	3.857
539.348	3.853
539.848	3.85
540.348	3.846
540.848	3.842
541.348	3.839
541.848	3.835
542.348	3.831
542.848	3.827
543.348	3.823
543.848	3.819
544.348	3.815
544.848	3.811
545.348	3.806
545.848	3.802
546.348	3.798
546.848	3.794
547.348	3.789
547.848	3.785
548.348	3.78
548.848	3.776
549.348	3.771
549.848	3.766
550.348	3.761
550.848	3.757
551.348	3.752
551.848	3.747
552.348	3.742
552.848	3.737
553.348	3.732
553.848	3.726
554.348	3.721
554.848	3.716
555.348	3.711
555.848	3.705
556.348	3.7
556.848	3.694
557.348	3.689
557.848	3.683
558.348	3.678
558.848	3.672
559.348	3.666
559.848	3.66
560.348	3.654
560.848	3.649
561.348	3.643
561.848	3.637
562.348	3.631
562.848	3.624
563.348	3.618
563.848	3.612
564.348	3.606
564.848	3.6
565.348	3.594
565.848	3.587
566.348	3.581
566.848	3.575
567.348	3.568
567.848	3.562
568.348	3.556
568.848	3.549
569.348	3.543
569.848	3.536
570.348	3.53
570.848	3.523
571.348	3.517
571.848	3.51
572.348	3.503
572.848	3.497
573.348	3.49
573.848	3.484
574.348	3.477
574.848	3.47
575.348	3.464
575.848	3.457
576.348	3.451
576.848	3.444
577.348	3.437
577.848	3.43
578.348	3.424
578.848	3.417
579.348	3.41
579.848	3.404
580.348	3.397
580.848	3.39
581.348	3.383
581.848	3.376
582.348	3.37
582.848	3.363
583.348	3.356
583.848	3.349
584.348	3.342
584.848	3.335
585.348	3.328
585.848	3.32
586.348	3.313
586.848	3.306
587.271	3.297
589.771	3.263
592.271	3.225
594.771	3.185
597.271	3.142
599.771	3.098
602.271	3.054
604.771	3.01
607.271	2.966
609.771	2.924
612.271	2.883
614.771	2.843
617.271	2.804
619.771	2.766
622.271	2.729
624.771	2.691
627.271	2.651
629.771	2.61
632.271	2.566
634.771	2.519
637.271	2.468
639.519	2.419
642.019	2.366
644.519	2.319
647.019	2.307
