Uv/Vis Spectrum: Naphthalene, 1-isothiocyanato-
Formula: C11H7NS
CAS: 551-06-4
Melting point: 55-56
Instrument: SF-4
Origin: INSTITUTE OF ENERGY PROBLEMS OF CHEMICAL PHYSICS, RAS
Wavelength (nm)	Logarithm epsilon
212.97	4.374
213.14	4.378
213.31	4.381
213.48	4.385
213.65	4.391
213.82	4.395
213.98	4.398
214.32	4.415
215	4.459
215.67	4.486
216.34	4.516
217.02	4.543
217.69	4.564
218.37	4.581
219.04	4.591
219.71	4.601
220.39	4.614
221.06	4.628
221.74	4.635
222.41	4.645
223.08	4.648
223.76	4.662
224.43	4.665
225.1	4.672
225.78	4.679
226.45	4.682
227.13	4.686
227.8	4.696
228.47	4.709
229.15	4.729
229.82	4.76
230.5	4.78
231.17	4.78
231.84	4.767
232.52	4.729
233.19	4.692
233.87	4.628
234.54	4.516
235.21	4.408
235.89	4.31
236.56	4.229
237.24	4.134
237.91	4.04
238.58	3.982
239.26	3.952
239.93	3.874
240.61	3.82
241.28	3.769
241.95	3.735
242.63	3.705
243.3	3.681
243.98	3.664
244.65	3.647
245.32	3.641
246	3.63
246.67	3.627
247.35	3.617
248.02	3.614
248.69	3.61
249.37	3.6
250.04	3.597
250.72	3.59
251.39	3.58
252.06	3.576
252.74	3.563
253.41	3.549
254.09	3.536
254.76	3.522
255.43	3.499
256.11	3.478
256.78	3.458
257.46	3.438
258.13	3.411
258.8	3.387
259.48	3.363
260.15	3.336
260.82	3.302
261.5	3.286
262.17	3.269
262.85	3.262
263.52	3.248
264.19	3.248
264.87	3.248
265.54	3.258
266.22	3.262
266.89	3.269
267.56	3.279
268.24	3.286
268.91	3.286
269.59	3.299
270.26	3.309
270.93	3.323
271.61	3.34
272.28	3.357
272.96	3.373
273.63	3.394
274.3	3.421
274.98	3.441
275.65	3.461
276.33	3.485
277	3.512
277.67	3.536
278.35	3.563
279.02	3.583
279.7	3.607
280.37	3.63
281.04	3.651
281.72	3.671
282.39	3.691
283.07	3.712
283.74	3.732
284.41	3.749
285.09	3.762
285.76	3.772
286.44	3.789
287.11	3.806
287.78	3.837
288.46	3.86
289.13	3.891
289.81	3.918
290.48	3.942
291.15	3.962
291.83	3.979
292.5	3.996
293.17	4.009
293.85	4.016
294.52	4.026
295.2	4.029
295.87	4.029
296.54	4.033
297.22	4.033
297.89	4.04
298.57	4.043
299.24	4.046
299.91	4.053
300.59	4.063
301.26	4.077
301.94	4.094
302.61	4.111
303.28	4.131
303.96	4.151
304.63	4.168
305.31	4.185
305.98	4.202
306.65	4.215
307.33	4.222
308	4.229
308.68	4.229
309.35	4.215
310.02	4.202
310.7	4.182
311.37	4.148
312.05	4.128
312.72	4.101
313.39	4.084
314.07	4.067
314.74	4.06
315.42	4.046
316.09	4.04
316.76	4.029
317.44	4.033
318.11	4.043
318.79	4.05
319.46	4.067
320.13	4.09
320.81	4.107
321.48	4.121
322.16	4.134
322.83	4.141
323.5	4.144
324.18	4.141
324.85	4.128
325.52	4.111
326.2	4.084
326.87	4.043
327.55	3.982
328.22	3.911
328.89	3.847
329.57	3.766
330.24	3.691
330.92	3.614
331.59	3.519
332.26	3.424
332.94	3.336
333.61	3.235
334.29	3.13
334.96	3.052
335.63	3.018
336.31	2.907
336.98	2.826
337.66	2.734
338.33	2.657
339	2.579
339.68	2.515
340.35	2.464
341.03	2.423
341.7	2.379
342.37	2.329
343.05	2.281
343.72	2.234
344.4	2.197
345.07	2.153
345.74	2.116
346.42	2.072
347.09	2.034
347.77	2.001
348.44	1.953
349.11	1.916
349.79	1.875
350.46	1.835
351.14	1.798
351.81	1.754
352.48	1.716
353.16	1.673
353.83	1.625
354.51	1.588
355.18	1.544
355.85	1.503
356.53	1.459
357.2	1.422
357.87	1.382
358.55	1.341
359.22	1.301
359.9	1.26
360.57	1.216
361.24	1.175
361.92	1.128
362.59	1.094
363.27	1.047
363.94	1
364.61	0.962
365.29	0.918
365.96	0.881
366.64	0.837
367.31	0.803
367.98	0.753
368.66	0.709
369.33	0.658
370.01	0.621
