Uv/Vis Spectrum: Benzamide
Formula: C7H7NO
CAS: 55-21-0
Melting point: 129.1
Boiling point: 290
Instrument: n.i.g.
Origin: INSTITUTE OF ENERGY PROBLEMS OF CHEMICAL PHYSICS, RAS
Wavelength (nm)	Logarithm epsilon
290.481	1.0195
290.102	1.08627
289.755	1.14731
289.437	1.20292
289.147	1.25339
288.884	1.29902
288.646	1.3401
288.431	1.37692
288.239	1.40977
288.068	1.43895
287.916	1.46476
287.782	1.48748
287.664	1.5074
287.562	1.52483
287.474	1.54005
287.399	1.55336
287.334	1.56505
287.279	1.57541
287.233	1.58474
287.194	1.59333
287.16	1.60147
287.131	1.60946
287.105	1.61758
287.081	1.62614
287.081	1.62614
286.916	1.64133
286.667	1.67628
286.377	1.72111
286.088	1.76593
285.881	1.76303
285.841	1.80088
285.815	1.76047
285.74	1.75792
285.677	1.81607
285.677	1.81607
285.667	1.9441
285.661	1.75537
285.614	1.947
285.614	1.947
285.584	1.94259
285.543	1.86756
285.449	1.94773
285.417	1.89852
285.326	1.91952
285.295	1.94118
285.295	1.94118
285.276	1.94839
285.099	1.94887
285.099	1.94887
284.891	1.99071
284.713	2.02514
284.561	2.05389
284.43	2.07867
284.316	2.10118
284.215	2.12314
284.123	2.14625
284.035	2.17223
283.947	2.20278
283.947	2.20278
283.762	2.22054
283.498	2.25953
283.208	2.30559
282.945	2.34458
282.76	2.36234
282.76	2.36234
282.633	2.3894
282.488	2.41766
282.316	2.44675
282.108	2.47631
281.855	2.50598
281.551	2.53539
281.186	2.56418
280.753	2.59199
280.243	2.61844
279.65	2.64319
278.966	2.66587
278.966	2.66587
278.607	2.66662
278.249	2.66729
277.892	2.6678
277.892	2.6678
277.548	2.65595
277.251	2.64207
276.909	2.63023
276.909	2.63023
276.555	2.63026
276.203	2.6303
275.851	2.63033
275.851	2.63033
275.098	2.64745
274.321	2.67319
273.587	2.70393
272.962	2.73602
272.509	2.76585
272.293	2.78977
272.293	2.78977
271.704	2.80956
271.118	2.82927
270.534	2.84883
270.534	2.84883
270.285	2.84885
270.037	2.84888
269.789	2.8489
269.789	2.8489
269.38	2.83573
269.094	2.82343
268.685	2.80147
268.685	2.80147
268.223	2.79902
267.942	2.79857
267.6	2.79976
267.6	2.79976
266.923	2.82081
266.366	2.83462
265.454	2.85301
265.454	2.85301
263.795	2.8426
262.455	2.82395
260.896	2.80231
260.896	2.80231
260.467	2.80381
260.039	2.80522
259.612	2.80648
259.612	2.80648
258.554	2.8228
257.548	2.83929
256.592	2.85605
255.68	2.87322
254.81	2.89089
253.976	2.9092
253.174	2.92824
252.403	2.94815
251.657	2.96903
250.933	2.991
250.228	3.01418
250.228	3.01418
249.832	3.03898
249.398	3.06357
248.931	3.08796
248.433	3.11214
247.908	3.13612
247.36	3.1599
246.792	3.18348
246.208	3.20685
245.61	3.23001
245.002	3.25296
244.388	3.27571
243.769	3.29825
243.15	3.32057
242.534	3.34269
241.923	3.3646
241.32	3.38629
240.728	3.40777
240.728	3.40777
240.445	3.41483
240.158	3.42302
239.773	3.43459
239.199	3.4518
238.345	3.47691
237.127	3.51218
235.465	3.55987
235.465	3.55987
234.567	3.58142
233.637	3.604
232.659	3.62412
231.62	3.63829
