Uv/Vis Spectrum: Benzaldehyde, 2-nitro-
Formula: C7H5NO3
CAS: 552-89-6
Melting point: 40
Instrument: Unicam SP 500
Origin: INSTITUTE OF ENERGY PROBLEMS OF CHEMICAL PHYSICS, RAS
Wavelength (nm)	Logarithm epsilon
209.96	4.066
210.63	4.093
211.65	4.117
212.49	4.144
213.5	4.164
214.52	4.188
215.7	4.205
216.88	4.222
218.4	4.229
219.75	4.239
221.27	4.242
222.79	4.242
224.31	4.242
225.66	4.229
226.84	4.212
227.85	4.191
228.7	4.168
229.54	4.144
230.38	4.12
231.23	4.097
232.07	4.073
232.58	4.046
233.59	4.022
234.27	3.995
235.11	3.971
235.96	3.944
236.46	3.917
237.47	3.894
238.66	3.873
239.84	3.853
241.19	3.843
242.71	3.833
244.23	3.829
245.75	3.833
247.27	3.829
248.78	3.829
250.3	3.826
251.82	3.816
253.34	3.806
254.69	3.792
256.04	3.775
257.39	3.758
258.74	3.741
259.93	3.724
261.11	3.708
262.12	3.687
263.13	3.667
264.31	3.647
265.33	3.626
266.51	3.606
267.52	3.586
268.53	3.562
269.55	3.542
270.73	3.521
271.57	3.498
272.59	3.474
273.6	3.454
274.61	3.43
275.62	3.41
276.47	3.386
277.65	3.366
278.83	3.346
280.01	3.325
281.36	3.308
282.55	3.291
283.9	3.274
285.08	3.258
286.43	3.244
287.95	3.234
289.47	3.231
290.99	3.227
292.51	3.224
294.02	3.22
295.37	3.207
296.89	3.197
298.24	3.183
299.43	3.166
300.61	3.149
301.79	3.129
302.8	3.105
303.98	3.085
305	3.065
305.84	3.041
306.85	3.021
307.87	3
308.71	2.977
309.72	2.953
310.74	2.929
311.41	2.902
312.42	2.879
313.27	2.852
314.28	2.828
315.12	2.804
315.97	2.781
316.98	2.76
317.99	2.737
319.01	2.713
320.02	2.693
321.03	2.672
321.88	2.649
322.89	2.628
324.07	2.611
325.25	2.594
326.6	2.578
327.95	2.564
329.3	2.55
330.82	2.547
332.17	2.534
333.69	2.53
335.21	2.52
336.73	2.513
338.25	2.503
339.77	2.496
341.12	2.483
342.64	2.473
343.99	2.462
345.51	2.452
346.86	2.442
348.21	2.432
349.73	2.422
351.08	2.405
352.43	2.391
353.95	2.381
355.3	2.368
356.65	2.354
358	2.337
359.18	2.32
360.53	2.307
361.88	2.29
363.23	2.273
364.42	2.256
365.77	2.239
366.95	2.219
368.13	2.199
369.31	2.182
370.32	2.161
371.51	2.141
372.69	2.124
373.87	2.104
374.88	2.084
375.89	2.063
376.91	2.04
377.92	2.016
379.1	1.996
380.11	1.972
381.13	1.952
382.14	1.931
383.15	1.911
384	1.887
385.01	1.864
386.02	1.84
386.87	1.816
387.88	1.796
388.72	1.772
389.74	1.749
390.58	1.725
391.59	1.701
392.44	1.678
393.28	1.654
393.96	1.627
394.8	1.603
395.64	1.576
396.49	1.552
397.33	1.525
398.18	1.502
399.02	1.475
399.86	1.451
400.71	1.424
401.22	1.397
402.23	1.373
402.9	1.346
403.92	1.322
404.59	1.295
405.44	1.272
406.28	1.244
406.95	1.217
407.8	1.194
408.47	1.167
409.32	1.143
409.99	1.116
410.84	1.092
411.51	1.065
412.36	1.041
412.86	1.014
413.54	0.987
414.38	0.964
414.89	0.937
415.73	0.91
416.24	0.882
417.08	0.859
417.76	0.832
418.6	0.805
