Uv/Vis Spectrum: Isonicotinic acid
Formula: C6H5NO2
CAS: 55-22-1
Melting point: 315
Boiling point: sub 260
Instrument: Unicam SP 500
Origin: INSTITUTE OF ENERGY PROBLEMS OF CHEMICAL PHYSICS, RAS
Wavelength (nm)	Logarithm epsilon
230.64	3.354
230.92	3.346
231.28	3.339
231.56	3.331
231.93	3.323
232.29	3.315
232.75	3.307
233.21	3.299
233.76	3.293
234.22	3.285
234.77	3.279
235.41	3.272
236.15	3.268
236.97	3.268
237.8	3.269
238.53	3.273
239.27	3.278
239.91	3.283
240.55	3.289
241.1	3.297
241.65	3.303
242.2	3.309
242.84	3.315
243.3	3.322
243.85	3.329
244.31	3.337
244.77	3.344
245.23	3.352
245.5	3.36
245.87	3.367
246.33	3.374
246.79	3.381
247.06	3.388
247.43	3.395
247.8	3.402
248.17	3.408
248.44	3.415
248.72	3.422
249.08	3.428
249.36	3.435
249.72	3.441
250	3.448
250.37	3.454
250.73	3.459
251.01	3.465
251.38	3.471
251.74	3.476
252.11	3.482
252.39	3.488
252.66	3.493
253.03	3.499
253.39	3.504
253.67	3.51
253.94	3.515
254.31	3.52
254.59	3.526
254.86	3.531
255.14	3.536
255.5	3.541
255.78	3.546
256.06	3.551
256.33	3.555
256.7	3.56
256.97	3.565
257.34	3.57
257.61	3.575
257.89	3.58
258.17	3.585
258.53	3.589
258.81	3.594
259.17	3.598
259.45	3.602
259.82	3.606
260.28	3.61
260.55	3.614
261.01	3.618
261.47	3.622
261.83	3.626
262.29	3.63
262.84	3.633
263.49	3.636
264.04	3.638
264.77	3.64
265.5	3.642
266.33	3.643
267.16	3.642
267.8	3.64
268.26	3.637
268.81	3.633
269.17	3.629
269.63	3.625
270	3.621
270.28	3.617
270.64	3.613
271.01	3.609
271.38	3.605
271.65	3.6
272.02	3.596
272.29	3.592
272.57	3.588
272.84	3.583
273.21	3.579
273.49	3.575
273.67	3.57
273.94	3.565
274.22	3.561
274.5	3.556
274.68	3.551
274.95	3.546
275.14	3.541
275.41	3.536
275.69	3.53
275.87	3.525
276.15	3.52
276.42	3.514
276.61	3.509
276.79	3.503
276.97	3.497
277.25	3.491
277.43	3.485
277.52	3.479
277.71	3.472
277.89	3.466
277.98	3.459
278.17	3.453
278.35	3.446
278.53	3.44
278.72	3.433
278.99	3.426
279.08	3.419
279.27	3.411
279.45	3.404
279.63	3.397
279.72	3.389
279.91	3.381
280	3.374
280.18	3.366
280.37	3.357
280.55	3.349
280.73	3.341
280.92	3.332
281.19	3.323
281.28	3.314
281.47	3.305
281.65	3.296
281.74	3.286
281.93	3.276
282.11	3.266
282.29	3.256
282.48	3.246
282.75	3.235
282.94	3.224
283.12	3.213
283.3	3.201
283.49	3.189
283.67	3.177
283.85	3.164
284.13	3.153
284.4	3.139
284.59	3.125
284.86	3.113
285.05	3.098
285.32	3.083
285.5	3.067
285.78	3.051
285.96	3.034
286.15	3.016
286.42	3
286.7	2.983
286.88	2.963
287.06	2.942
287.34	2.923
287.61	2.9
287.89	2.876
288.17	2.85
288.44	2.826
288.81	2.8
289.17	2.773
289.54	2.744
289.91	2.713
290.37	2.68
290.83	2.648
291.28	2.609
291.83	2.577
292.48	2.543
293.03	2.506
293.67	2.472
294.4	2.436
295.14	2.396
295.87	2.352
296.61	2.313
297.34	2.282
298.07	2.236
298.9	2.198
299.72	2.157
300.55	2.127
301.38	2.095
302.2	2.078
303.03	2.042
303.85	2.022
304.68	2.002
305.52	1.985
306.31	1.968
307.11	1.953
307.98	1.935
