Uv/Vis Spectrum: Benzoic acid, 2-nitro-
Formula: C7H5NO4
CAS: 552-16-9
Melting point: 147
Instrument: Unicam SP 500
Origin: INSTITUTE OF ENERGY PROBLEMS OF CHEMICAL PHYSICS, RAS
Wavelength (nm)	Logarithm epsilon
210.76	4.166
211.93	4.149
213.11	4.129
214.12	4.105
215.3	4.084
216.47	4.064
217.65	4.047
218.82	4.026
219.83	4.006
221.01	3.989
222.19	3.972
223.19	3.951
224.37	3.931
225.72	3.913
227.06	3.896
228.35	3.886
229.92	3.876
231.43	3.866
232.94	3.855
234.29	3.842
235.63	3.828
237.15	3.818
238.49	3.808
239.83	3.791
241.02	3.776
242.36	3.756
243.7	3.739
245.04	3.722
246.39	3.705
247.73	3.688
249.08	3.671
250.42	3.654
251.6	3.633
252.78	3.616
253.95	3.596
255.3	3.579
256.64	3.562
257.99	3.545
259.33	3.527
260.51	3.507
261.68	3.49
262.86	3.473
263.87	3.452
265.05	3.432
266.22	3.415
267.4	3.394
268.58	3.377
269.58	3.353
270.59	3.333
271.77	3.312
272.95	3.295
274.12	3.278
275.47	3.261
276.64	3.244
277.82	3.227
279	3.21
280.51	3.199
281.85	3.186
283.2	3.172
284.71	3.169
286.06	3.155
287.4	3.141
288.58	3.124
289.75	3.104
290.93	3.083
292.11	3.063
293.12	3.039
294.12	3.015
295.13	2.991
295.8	2.964
296.81	2.94
297.49	2.912
298.49	2.889
299.33	2.861
300.17	2.837
301.01	2.813
301.79	2.793
303.03	2.765
304.11	2.746
305.22	2.721
306.23	2.701
307.4	2.68
308.75	2.663
310.09	2.646
311.44	2.629
312.78	2.619
314.12	2.605
315.47	2.591
316.98	2.581
318.49	2.571
320.01	2.564
321.52	2.554
323.03	2.547
324.55	2.537
326.06	2.53
327.47	2.523
328.84	2.518
330.43	2.509
331.94	2.506
333.48	2.497
334.97	2.492
336.48	2.489
337.99	2.478
339.5	2.475
340.86	2.468
342.36	2.458
343.86	2.45
345.09	2.442
346.73	2.434
348.08	2.42
349.59	2.414
350.93	2.4
352.28	2.39
353.62	2.376
354.97	2.362
356.31	2.352
357.83	2.342
359	2.325
360.35	2.308
361.69	2.291
362.87	2.27
364.21	2.253
365.56	2.236
366.9	2.219
368	2.201
369.42	2.181
370.6	2.161
371.78	2.14
372.95	2.12
373.96	2.099
375.14	2.082
376.15	2.062
377.32	2.045
378.33	2.024
379.51	2.004
380.68	1.986
381.76	1.965
382.87	1.946
383.88	1.925
384.89	1.905
386.06	1.884
387.24	1.863
