Uv/Vis Spectrum: Acetamide, N-(2-nitrophenyl)-
Formula: C8H8N2O3
CAS: 552-32-9
Melting point: 92-93
Instrument: Spektromom 201
Origin: INSTITUTE OF ENERGY PROBLEMS OF CHEMICAL PHYSICS, RAS
Wavelength (nm)	Logarithm epsilon
202.31	4.116
203.46	4.096
204.45	4.076
205.43	4.056
206.42	4.033
207.25	4.009
208.07	3.983
208.73	3.956
209.55	3.933
211.03	3.936
212.19	3.956
213.18	3.979
214.16	3.999
215.32	4.016
216.47	4.033
217.46	4.056
219.6	4.093
220.42	4.119
221.74	4.136
222.89	4.153
224.04	4.169
225.2	4.186
226.52	4.203
227.83	4.216
229.31	4.226
230.63	4.236
232.11	4.236
233.6	4.233
234.91	4.223
236.23	4.206
237.38	4.189
238.54	4.169
239.36	4.146
240.35	4.126
241.17	4.103
242	4.076
242.65	4.049
243.31	4.023
243.81	3.996
244.3	3.969
244.8	3.943
245.45	3.916
245.95	3.886
246.77	3.863
247.27	3.836
247.76	3.809
248.75	3.789
249.41	3.763
250.07	3.736
251.05	3.712
252.37	3.696
253.52	3.676
254.84	3.662
256.32	3.656
257.81	3.646
259.29	3.642
260.77	3.639
262.25	3.639
263.74	3.639
265.22	3.639
266.7	3.639
268.18	3.639
269.66	3.639
271.15	3.639
272.46	3.629
273.95	3.622
275.43	3.612
276.91	3.602
278.23	3.592
279.55	3.576
280.86	3.562
282.18	3.549
283.5	3.532
284.65	3.516
285.97	3.499
287.29	3.482
288.44	3.466
289.59	3.449
290.74	3.432
291.9	3.412
293.05	3.396
294.2	3.379
295.36	3.362
296.67	3.349
297.99	3.336
299.31	3.322
300.79	3.319
302.27	3.316
303.75	3.312
305.24	3.316
306.72	3.319
308.2	3.319
309.68	3.326
311.17	3.332
312.65	3.339
313.97	3.349
315.45	3.349
316.77	3.362
318.25	3.366
319.57	3.376
321.05	3.382
322.53	3.389
324.01	3.396
325.49	3.399
326.81	3.409
328.29	3.412
329.78	3.412
331.26	3.419
332.74	3.422
334.22	3.426
335.7	3.426
337.19	3.426
338.67	3.426
340.15	3.429
341.63	3.426
343.12	3.426
344.6	3.422
346.08	3.416
347.56	3.412
349.04	3.406
350.53	3.396
352.01	3.389
353.33	3.376
354.64	3.366
355.96	3.352
357.28	3.336
358.76	3.329
359.58	3.306
361.07	3.309
362.38	3.296
363.7	3.279
365.02	3.262
366.34	3.245
367.65	3.229
368.81	3.212
369.96	3.192
371.11	3.172
372.27	3.155
373.42	3.135
374.41	3.115
375.4	3.095
376.38	3.075
377.37	3.055
378.19	3.032
379.18	3.012
380.17	2.989
380.99	2.962
381.98	2.942
382.81	2.919
383.79	2.895
384.62	2.872
385.61	2.849
386.43	2.825
387.25	2.802
388.08	2.779
388.9	2.752
389.72	2.728
390.55	2.705
391.37	2.678
392.19	2.655
392.69	2.628
393.68	2.605
394.33	2.578
395.16	2.555
395.98	2.528
396.64	2.502
397.46	2.478
398.12	2.452
398.95	2.425
399.6	2.398
400.26	2.372
401.09	2.345
401.58	2.318
402.4	2.295
402.9	2.268
403.56	2.241
404.38	2.215
404.87	2.188
405.7	2.161
406.36	2.135
406.85	2.108
407.67	2.081
408.17	2.055
408.83	2.028
409.49	2.001
409.98	1.971
410.47	1.945
411.13	1.918
411.63	1.891
412.29	1.865
412.94	1.838
413.44	1.808
413.93	1.781
414.43	1.755
415.09	1.728
415.58	1.701
416.07	1.674
416.73	1.648
417.23	1.621
417.72	1.594
418.21	1.568
418.71	1.541
419.37	1.514
419.86	1.484
420.36	1.458
420.85	1.431
421.34	1.404
421.84	1.378
422.33	1.351
422.83	1.324
423.32	1.294
423.81	1.264
424.47	1.231
424.8	1.201
425.3	1.174
425.79	1.147
426.28	1.121
426.78	1.094
427.11	1.064
