Uv/Vis Spectrum: 4,4'-Bipyridine
Formula: C10H8N2
CAS: 553-26-4
Melting point: 111
Boiling point: 305
Instrument: Beckman DU
Origin: INSTITUTE OF ENERGY PROBLEMS OF CHEMICAL PHYSICS, RAS
Wavelength (nm)	Logarithm epsilon
212.16	3.822
212.28	3.82
212.41	3.819
212.54	3.817
212.67	3.815
212.92	3.805
213.68	3.802
214.06	3.802
214.44	3.805
214.82	3.809
215.2	3.819
215.59	3.82
215.97	3.825
216.35	3.833
216.73	3.841
217.11	3.85
217.49	3.858
217.87	3.868
218.25	3.877
218.63	3.886
219.01	3.893
219.39	3.901
219.77	3.913
220.16	3.921
220.54	3.936
220.92	3.944
221.3	3.957
221.68	3.967
222.06	3.978
222.44	3.985
222.82	4
223.2	4.006
223.58	4.019
223.96	4.022
224.34	4.037
224.72	4.04
225.11	4.05
225.49	4.06
225.87	4.073
226.25	4.077
226.63	4.083
227.01	4.091
227.39	4.098
227.77	4.107
228.15	4.114
228.53	4.122
228.91	4.123
229.29	4.129
229.68	4.138
230.06	4.143
230.44	4.151
230.82	4.156
231.2	4.161
231.58	4.166
231.96	4.171
232.34	4.173
232.72	4.177
233.48	4.182
233.86	4.185
234.25	4.185
234.63	4.187
235.39	4.191
235.77	4.19
236.15	4.191
236.53	4.191
236.91	4.191
237.29	4.191
238.05	4.191
238.43	4.19
238.82	4.189
239.2	4.188
239.58	4.187
240.34	4.185
240.72	4.182
241.1	4.181
241.48	4.177
241.86	4.174
242.24	4.17
242.62	4.164
243	4.161
243.39	4.157
243.77	4.153
244.15	4.148
244.53	4.144
245.29	4.135
245.67	4.131
246.05	4.129
246.43	4.119
246.81	4.111
247.19	4.104
247.57	4.098
247.95	4.093
248.34	4.086
248.72	4.081
249.1	4.074
249.48	4.073
249.86	4.064
250.24	4.056
250.62	4.047
251	4.04
251.38	4.036
251.76	4.028
252.14	4.022
252.52	4.017
252.91	4.007
253.29	4.003
253.67	3.996
254.05	3.989
254.43	3.984
254.81	3.977
255.19	3.975
255.57	3.967
255.95	3.962
256.33	3.959
256.71	3.957
257.09	3.954
257.86	3.945
258.24	3.941
258.62	3.939
259	3.934
260.14	3.924
260.52	3.922
260.9	3.92
261.28	3.916
261.66	3.914
262.81	3.904
263.19	3.902
263.57	3.898
263.95	3.896
264.33	3.89
264.71	3.891
265.09	3.881
265.47	3.876
265.85	3.87
266.23	3.863
267	3.853
267.38	3.85
267.76	3.844
268.14	3.84
268.52	3.828
268.9	3.817
269.28	3.812
269.66	3.798
270.04	3.793
270.42	3.784
270.8	3.784
271.18	3.773
271.57	3.766
271.95	3.758
272.33	3.751
272.71	3.737
273.09	3.727
273.47	3.717
273.85	3.712
274.23	3.7
274.61	3.691
274.99	3.68
275.37	3.67
275.75	3.649
276.14	3.642
276.52	3.632
276.9	3.619
277.28	3.605
277.66	3.586
278.04	3.58
278.42	3.569
278.8	3.557
279.18	3.548
279.56	3.538
279.94	3.519
280.32	3.506
280.71	3.496
281.09	3.478
281.47	3.459
281.85	3.44
282.23	3.436
282.61	3.42
282.99	3.399
283.37	3.394
283.75	3.376
284.13	3.362
284.51	3.367
284.89	3.333
285.28	3.328
285.66	3.307
286.04	3.302
286.42	3.285
287.18	3.256
287.56	3.25
287.94	3.237
288.32	3.225
288.7	3.225
289.08	3.218
289.46	3.212
