Uv/Vis Spectrum: 7,9-dihydro-9-methyl-1H-purine-2,6,8(3H)-trione
Formula: C6H6N4O3
CAS: 55441-71-9
Instrument: Cary 15
Origin: INSTITUTE OF ENERGY PROBLEMS OF CHEMICAL PHYSICS, RAS
Wavelength (nm)	Logarithm epsilon
212.569	4.334
212.74	4.334
212.911	4.333
212.923	4.321
213.923	4.263
214.923	4.212
215.923	4.166
216.923	4.124
217.923	4.085
218.923	4.049
219.923	4.016
220.923	3.985
221.923	3.956
222.923	3.928
223.923	3.902
224.923	3.878
225.923	3.856
226.923	3.836
227.923	3.818
228.923	3.803
229.923	3.79
230.923	3.78
231.923	3.773
232.923	3.769
233.923	3.767
234.923	3.769
235.923	3.773
236.923	3.78
237.923	3.789
238.923	3.8
239.923	3.812
240.923	3.824
241.804	3.835
242.804	3.841
243.804	3.847
244.804	3.853
245.804	3.857
246.804	3.86
247.804	3.859
248.804	3.856
249.804	3.85
250.804	3.841
251.804	3.83
252.804	3.816
253.804	3.8
254.804	3.783
255.804	3.765
256.804	3.747
257.804	3.728
258.804	3.71
259.804	3.693
260.804	3.677
261.804	3.663
262.804	3.651
263.804	3.641
264.804	3.633
265.804	3.628
266.804	3.626
267.804	3.626
268.804	3.628
269.804	3.633
270.804	3.641
271.804	3.65
272.804	3.662
273.804	3.676
274.582	3.69
275.582	3.707
276.582	3.724
277.582	3.741
278.582	3.759
279.582	3.777
280.582	3.795
281.582	3.814
282.582	3.832
283.582	3.851
284.582	3.87
285.582	3.888
286.582	3.905
287.582	3.923
288.582	3.939
289.582	3.954
290.582	3.968
291.582	3.98
292.582	3.99
293.582	3.999
294.582	4.005
295.582	4.009
296.582	4.01
297.582	4.009
298.582	4.005
299.582	3.999
300.582	3.989
301.582	3.977
302.582	3.963
303.582	3.947
304.582	3.929
305.582	3.91
306.582	3.891
307.582	3.872
308.582	3.854
308.6	3.854
309.6	3.823
310.6	3.79
311.6	3.753
312.6	3.714
313.6	3.669
314.6	3.619
315.6	3.564
316.6	3.507
317.6	3.453
317.636	3.453
318.636	3.399
319.636	3.351
320.636	3.306
321.636	3.259
322.636	3.211
323.636	3.159
324.636	3.106
