Uv/Vis Spectrum: 7,9-dihydro-3,9-dimethyl-1H-purine-2,6,8(3H)-trione
Formula: C7H8N4O3
CAS: 55441-63-9
Melting point: 398-400 (dec.)
Instrument: Cary 15
Origin: INSTITUTE OF ENERGY PROBLEMS OF CHEMICAL PHYSICS, RAS
Wavelength (nm)	Logarithm epsilon
209.527	4.358
210.527	4.322
211.527	4.289
212.527	4.256
213.527	4.225
214.527	4.193
215.527	4.162
216.527	4.13
217.527	4.098
218.527	4.066
219.527	4.034
220.527	4.003
221.527	3.973
222.527	3.945
223.527	3.919
224.527	3.895
225.527	3.874
226.527	3.857
227.527	3.843
228.527	3.833
229.527	3.826
230.527	3.822
231.527	3.822
232.499	3.82
233.499	3.826
234.499	3.83
235.499	3.834
236.499	3.836
237.499	3.838
238.499	3.839
239.499	3.838
240.499	3.837
241.499	3.834
242.499	3.831
243.499	3.826
244.499	3.82
245.499	3.814
246.499	3.807
247.499	3.799
248.499	3.791
249.499	3.782
250.499	3.772
251.499	3.763
252.499	3.754
253.499	3.744
254.499	3.735
255.499	3.726
256.499	3.718
257.499	3.71
258.499	3.704
259.499	3.698
260.499	3.693
261.499	3.69
262.499	3.688
263.499	3.687
264.499	3.688
265.499	3.691
266.499	3.695
267.499	3.702
267.521	3.707
268.521	3.712
269.521	3.718
270.521	3.727
271.521	3.736
272.521	3.748
273.521	3.76
274.521	3.774
275.521	3.789
276.521	3.804
277.521	3.82
278.521	3.835
279.521	3.851
280.521	3.867
281.521	3.882
282.521	3.897
283.521	3.91
284.521	3.923
285.521	3.935
286.521	3.946
287.521	3.955
288.521	3.962
289.521	3.968
290.521	3.973
291.521	3.975
292.521	3.976
293.521	3.976
294.521	3.973
295.521	3.969
296.521	3.963
297.521	3.955
298.521	3.946
299.521	3.935
300.521	3.923
301.521	3.91
302.521	3.895
303.521	3.88
304.521	3.863
305.521	3.845
306.521	3.827
307.521	3.808
308.521	3.789
309.51	3.764
310.51	3.749
311.51	3.725
312.51	3.696
313.51	3.665
314.51	3.632
315.51	3.598
316.51	3.565
317.51	3.533
318.51	3.5
319.51	3.468
320.51	3.435
321.51	3.401
322.51	3.365
323.51	3.326
324.51	3.284
325.51	3.24
326.51	3.193
327.51	3.144
328.51	3.094
329.51	3.045
