Uv/Vis Spectrum: 7,9-dihydro-1,7,9-trimethyl-1H-purine-2,6,8(3H)-trione
Formula: C8H10N4O3
CAS: 55441-64-0
Melting point: 345
Instrument: Cary 15
Origin: INSTITUTE OF ENERGY PROBLEMS OF CHEMICAL PHYSICS, RAS
Wavelength (nm)	Logarithm epsilon
200.164	4.374
201.164	4.371
202.164	4.381
203.164	4.398
204.164	4.417
205.164	4.435
206.164	4.449
207.164	4.456
208.164	4.456
209.164	4.449
210.164	4.434
211.164	4.411
212.164	4.382
213.164	4.347
214.164	4.307
215.164	4.263
216.164	4.214
217.164	4.161
218.101	4.107
219.101	4.042
220.101	3.975
221.101	3.912
222.101	3.857
223.101	3.812
224.101	3.779
225.101	3.759
226.101	3.749
227.101	3.75
228.101	3.76
229.101	3.775
230.101	3.794
231.101	3.814
232.101	3.834
233.101	3.852
234.101	3.868
235.101	3.882
235.149	3.88
236.149	3.901
237.149	3.917
238.149	3.928
239.149	3.935
240.149	3.937
241.149	3.934
242.149	3.927
243.149	3.916
244.149	3.902
245.149	3.885
246.149	3.866
247.149	3.844
248.149	3.822
249.149	3.798
250.149	3.774
251.149	3.75
252.149	3.727
253.149	3.704
254.149	3.683
255.149	3.662
256.149	3.643
257.149	3.626
257.17	3.626
258.17	3.61
259.17	3.595
260.17	3.584
261.17	3.574
262.17	3.567
263.17	3.563
264.17	3.561
265.17	3.563
266.17	3.568
267.17	3.575
268.17	3.586
269.17	3.6
270.17	3.616
271.17	3.636
272.17	3.658
273.17	3.683
274.17	3.71
275.17	3.738
276.17	3.769
277.17	3.8
278.125	3.83
279.125	3.864
280.125	3.893
281.125	3.918
282.125	3.941
283.125	3.961
284.125	3.979
285.125	3.994
286.125	4.008
287.125	4.02
288.125	4.03
289.125	4.039
290.125	4.044
291.125	4.048
292.125	4.048
293.125	4.045
294.125	4.04
295.125	4.03
296.125	4.017
297.125	3.999
298.125	3.978
299.125	3.952
300.125	3.922
301.125	3.887
301.389	3.879
302.389	3.833
303.389	3.778
304.389	3.719
305.389	3.66
306.389	3.603
307.389	3.547
308.138	3.498
309.138	3.45
310.138	3.381
311.138	3.288
312.138	3.174
313.138	3.037
