Uv/Vis Spectrum: Thiophene, 2-methyl-
Formula: C5H6S
CAS: 554-14-3
Melting point: - 63.4
Boiling point: 112.6
Instrument: Beckman DU
Origin: INSTITUTE OF ENERGY PROBLEMS OF CHEMICAL PHYSICS, RAS
Wavelength (nm)	Logarithm epsilon
214.91	3.553
215.04	3.555
215.17	3.557
215.29	3.558
215.43	3.56
215.71	3.565
215.95	3.571
216.82	3.591
217.69	3.61
218.55	3.629
219.42	3.647
220.29	3.666
221.16	3.683
222.02	3.702
222.89	3.721
223.76	3.738
224.62	3.755
225.49	3.774
226.36	3.788
227.23	3.807
228.09	3.822
228.96	3.834
229.83	3.847
230.69	3.857
231.56	3.862
232.43	3.869
233.29	3.869
234.16	3.867
235.03	3.867
235.9	3.862
236.76	3.855
237.63	3.841
238.5	3.829
239.36	3.814
240.23	3.797
241.1	3.776
241.97	3.75
242.83	3.717
243.7	3.671
244.59	3.618
245.43	3.56
246.3	3.503
247.12	3.444
248.03	3.384
248.86	3.334
249.77	3.266
250.66	3.187
251.5	3.105
252.37	3.026
253.24	2.928
253.73	2.873
254.15	2.827
254.45	2.796
254.63	2.766
254.8	2.74
255.14	2.71
255.89	2.637
256.88	2.557
257.75	2.495
258.61	2.459
259.48	2.431
260.35	2.409
261.21	2.391
262.08	2.376
262.95	2.362
263.81	2.35
264.68	2.34
265.55	2.329
266.42	2.319
267.28	2.31
268.15	2.302
269.02	2.295
271.1	2.279
272.31	2.271
273.53	2.262
274.74	2.253
276.13	2.245
277.34	2.236
278.73	2.228
280.12	2.221
281.5	2.212
282.89	2.205
284.28	2.198
285.66	2.191
287.05	2.184
288.44	2.178
289.83	2.169
291.21	2.164
292.6	2.157
293.99	2.15
295.38	2.143
296.94	2.138
298.32	2.133
299.71	2.126
301.1	2.121
302.49	2.114
303.87	2.109
305.26	2.102
306.65	2.095
308.03	2.088
309.42	2.081
310.81	2.072
312.2	2.066
313.58	2.057
314.8	2.048
316.01	2.04
317.23	2.029
