Uv/Vis Spectrum: 4-(2-hydroxyethyl)benzenesulfonic acid, methyl ester
Formula: C9H12O4S
CAS: 55419-65-3
Instrument: Specord UV-Vis
Origin: INSTITUTE OF ENERGY PROBLEMS OF CHEMICAL PHYSICS, RAS
Wavelength (nm)	Logarithm epsilon
207.197	3.64
208.197	3.609
209.197	3.588
210.197	3.577
211.197	3.576
212.197	3.587
213.197	3.606
214.197	3.631
215.197	3.662
216.197	3.695
217.197	3.729
218.097	3.758
219.097	3.792
220.097	3.825
221.097	3.857
222.097	3.887
223.097	3.914
224.097	3.938
225.097	3.959
226.078	3.977
227.078	3.994
228.078	4.007
229.078	4.016
230.078	4.022
231.078	4.024
232.078	4.023
233.078	4.018
234.078	4.01
235.078	3.997
235.977	3.979
236.977	3.96
237.977	3.933
238.977	3.889
239.977	3.816
240.977	3.705
241.977	3.55
242.977	3.383
243.97	3.275
243.988	3.269
244.988	3.108
245.988	2.953
246.988	2.812
247.988	2.695
