Uv/Vis Spectrum: 7,9-dihydro-1,9-dimethyl-1H-purine-2,6,8(3H)-trione
Formula: C7H8N4O3
CAS: 55441-62-8
Melting point: 397 (dec.)
Instrument: Cary 15
Origin: INSTITUTE OF ENERGY PROBLEMS OF CHEMICAL PHYSICS, RAS
Wavelength (nm)	Logarithm epsilon
213.731	4.348
214.731	4.274
215.731	4.212
216.731	4.156
217.731	4.103
218.731	4.05
219.731	3.997
220.731	3.945
221.731	3.893
222.731	3.845
223.731	3.801
224.731	3.764
225.731	3.734
226.731	3.714
227.731	3.704
228.731	3.703
229.731	3.713
230.731	3.732
231.731	3.756
232.731	3.785
233.723	3.811
234.723	3.839
235.723	3.866
236.723	3.892
237.723	3.917
238.723	3.94
239.723	3.961
240.723	3.98
241.723	3.997
242.723	4.012
243.723	4.024
244.723	4.034
245.723	4.041
246.723	4.046
247.723	4.048
248.723	4.048
249.723	4.044
250.723	4.038
251.723	4.03
252.723	4.018
253.723	4.004
254.723	3.988
255.723	3.97
256.723	3.95
256.754	3.95
257.754	3.928
258.754	3.906
259.754	3.885
260.754	3.866
261.754	3.849
262.754	3.834
263.754	3.821
264.754	3.811
265.754	3.804
266.754	3.8
267.754	3.799
268.754	3.801
269.754	3.806
270.754	3.814
271.754	3.824
272.754	3.837
273.754	3.852
274.754	3.868
275.754	3.885
276.754	3.902
277.754	3.916
278.865	3.937
279.865	3.959
280.865	3.98
281.865	4
282.865	4.019
283.865	4.036
284.865	4.05
285.865	4.063
286.865	4.073
287.865	4.08
288.865	4.086
289.865	4.089
290.865	4.089
291.865	4.088
292.865	4.084
293.865	4.079
294.865	4.071
295.865	4.062
296.865	4.05
297.865	4.037
298.865	4.021
299.865	4.004
300.865	3.984
301.865	3.961
302.847	3.936
303.872	3.901
304.847	3.862
305.847	3.807
306.847	3.748
307.847	3.688
308.847	3.63
309.847	3.572
310.847	3.516
311.847	3.46
312.847	3.404
313.847	3.346
314.847	3.288
315.847	3.23
