Uv/Vis Spectrum: 7,9-dihydro-3,7,9-trimethyl-1H-purine-2,6,8(3H)-trione
Formula: C8H10N4O3
CAS: 55441-72-0
Melting point: 373-375
Instrument: Cary 15
Origin: INSTITUTE OF ENERGY PROBLEMS OF CHEMICAL PHYSICS, RAS
Wavelength (nm)	Logarithm epsilon
209.962	4.272
210.962	4.281
211.962	4.29
212.962	4.297
213.962	4.3
214.962	4.299
215.962	4.294
216.962	4.284
217.962	4.27
218.962	4.252
219.962	4.231
220.962	4.206
221.962	4.18
222.962	4.153
223.962	4.125
224.962	4.097
225.962	4.071
226.962	4.046
227.962	4.024
228.962	4.004
229.962	3.986
230.962	3.971
231.962	3.957
232.962	3.943
233.728	3.929
234.728	3.919
235.728	3.908
236.728	3.897
237.728	3.886
238.728	3.874
239.728	3.861
240.728	3.849
241.728	3.835
242.728	3.821
243.728	3.806
244.728	3.791
245.728	3.774
246.728	3.757
247.728	3.739
248.728	3.72
249.728	3.7
250.728	3.679
251.728	3.658
252.728	3.637
253.728	3.616
254.728	3.596
255.728	3.577
256.728	3.561
257.728	3.548
258.666	3.542
259.666	3.538
260.666	3.537
261.666	3.541
262.666	3.548
263.666	3.558
264.666	3.571
265.666	3.587
266.666	3.605
267.666	3.625
268.666	3.646
269.666	3.669
270.666	3.692
271.666	3.715
272.666	3.739
273.666	3.763
274.666	3.786
275.666	3.808
276.666	3.83
277.666	3.851
278.666	3.87
279.666	3.888
280.666	3.906
281.666	3.922
282.666	3.937
283.666	3.951
284.666	3.964
285.666	3.977
286.666	3.99
287.453	4.007
288.453	4.012
289.453	4.017
290.453	4.022
291.453	4.025
292.453	4.025
293.453	4.023
294.453	4.018
295.453	4.01
296.453	3.998
297.453	3.982
298.453	3.962
299.453	3.939
300.453	3.911
301.453	3.881
302.453	3.847
303.453	3.81
304.453	3.77
305.453	3.727
306.453	3.682
307.453	3.634
308.453	3.585
309.378	3.536
310.378	3.479
311.378	3.433
312.378	3.385
313.378	3.327
314.378	3.255
315.378	3.166
316.378	3.062
316.575	3.04
