Uv/Vis Spectrum: Phenol, 3-nitro-
Formula: C6H5NO3
CAS: 554-84-7
Melting point: 96.8
Boiling point: 194(70)
Instrument: n.i.g.
Origin: INSTITUTE OF ENERGY PROBLEMS OF CHEMICAL PHYSICS, RAS
Wavelength (nm)	Logarithm epsilon
462.491	0.589525
461.806	0.599676
461.219	0.631961
460.23	0.71407
460.23	0.71407
458.117	0.751841
456.095	0.801747
454.894	0.847147
454.894	0.847147
453.688	0.871094
452.27	0.910379
451.077	0.934322
451.077	0.934322
448.401	1.01644
446.101	1.08719
444.139	1.14761
442.476	1.19873
441.079	1.24159
439.914	1.27723
438.951	1.30669
438.158	1.33099
437.505	1.35119
436.965	1.36831
436.508	1.3834
436.108	1.39749
435.734	1.41162
435.361	1.42683
435.361	1.42683
434.375	1.44492
433.291	1.47386
432.307	1.49382
432.307	1.49382
431.43	1.53041
430.539	1.56724
429.881	1.64192
429.881	1.64192
429.772	1.62913
429.678	1.61659
429.618	1.60418
429.618	1.60418
429.404	1.64256
428.894	1.64346
428.368	1.64447
428.368	1.64447
427.433	1.67048
426.966	1.69082
426.564	1.72291
426.564	1.72291
426.044	1.72283
425.525	1.72274
425.059	1.70522
425.049	1.70876
425.038	1.71255
425.026	1.71646
425.008	1.72265
425.008	1.72265
424.062	1.78715
423.183	1.82454
422.324	1.86168
422.324	1.86168
421.283	1.88144
419.984	1.91465
418.698	1.94036
418.698	1.94036
417.627	1.96567
416.631	1.98874
415.542	2.02417
415.542	2.02417
413.102	2.08091
411.175	2.12835
409.608	2.16814
408.251	2.20192
406.959	2.23133
405.593	2.25802
405.593	2.25802
405.055	2.28323
404.519	2.30844
403.983	2.33365
403.983	2.33365
402.822	2.34412
401.652	2.35458
400.46	2.36504
400.46	2.36504
398.816	2.39357
397.17	2.42236
395.509	2.45126
395.509	2.45126
395.397	2.46265
395.256	2.47429
395.1	2.48605
395.1	2.48605
394.562	2.48988
393.996	2.4937
393.418	2.49753
393.418	2.49753
390.534	2.55734
388.962	2.59091
387.928	2.62185
387.928	2.62185
387.187	2.62242
386.435	2.62325
385.659	2.62419
385.659	2.62419
381.917	2.69482
379.579	2.73711
378.223	2.76548
378.223	2.76548
377.1	2.77199
375.983	2.77849
374.873	2.785
374.873	2.785
374.768	2.7985
374.637	2.81211
374.492	2.82598
374.492	2.82598
370.565	2.8756
368.16	2.90605
366.68	2.92884
366.68	2.92884
363.204	2.96272
360.473	2.98701
356.173	3.02253
356.173	3.02253
355.389	3.02517
354.597	3.02794
353.785	3.03095
353.785	3.03095
353.518	3.03555
353.24	3.04039
352.939	3.04536
352.939	3.04536
349.797	3.05926
346.703	3.07728
344.341	3.09548
344.341	3.09548
340.491	3.09822
336.96	3.09726
335.051	3.09299
335.051	3.09299
333.772	3.09264
332.502	3.09228
331.241	3.09193
331.241	3.09193
329.266	3.07599
326.268	3.05338
323.172	3.02547
323.172	3.02547
322.532	3.02455
321.886	3.02338
321.476	2.99853
321.476	2.99853
321.379	3.00637
321.293	3.01422
321.225	3.02208
321.225	3.02208
320.155	2.98024
318.579	2.95536
315.78	2.90342
315.78	2.90342
315.774	2.90735
315.767	2.91129
315.761	2.91523
315.761	2.91523
315.382	2.89767
315.293	2.90254
315.238	2.88921
315.086	2.88537
314.808	2.90141
314.797	2.88286
314.324	2.90015
314.324	2.90015
313.653	2.89038
312.976	2.8806
312.284	2.87082
312.284	2.87082
311.051	2.87214
309.827	2.87358
308.612	2.87527
308.612	2.87527
308.475	2.88087
308.321	2.88659
308.157	2.89256
308.157	2.89256
307.091	2.89896
306.015	2.90535
304.938	2.91175
304.938	2.91175
304.811	2.91958
304.675	2.92741
304.523	2.93523
304.523	2.93523
303.013	2.9541
301.969	2.96487
301.164	2.9746
301.164	2.9746
301.107	2.98022
301.034	2.98597
300.953	2.99196
300.953	2.99196
299.65	3.01756
298.342	3.04339
297.038	3.06935
297.038	3.06935
296.664	3.07108
296.275	3.07304
295.879	3.07513
295.879	3.07513
294.333	3.13835
293.582	3.16448
292.971	3.1759
292.971	3.1759
292.751	3.17583
292.515	3.17574
292.272	3.17565
292.272	3.17565
291.839	3.19366
290.911	3.22074
289.985	3.25019
288.717	3.27616
288.465	3.28565
288.214	3.29526
287.963	3.30512
287.963	3.30512
286.225	3.34328
284.501	3.38144
282.783	3.41959
282.783	3.41959
282.605	3.43021
282.428	3.44083
282.251	3.45145
282.251	3.45145
279.222	3.49019
277.914	3.50936
277.166	3.52537
277.166	3.52537
277.118	3.53099
277.057	3.53674
276.988	3.54273
275.359	3.5477
274.862	3.5507
274.373	3.55346
273.899	3.5561
273.899	3.5561
272.894	3.55458
271.902	3.55318
270.931	3.55205
270.931	3.55205
270.519	3.54571
270.108	3.53949
269.698	3.53353
269.082	3.52764
268.62	3.52536
268.441	3.5448
268.387	3.54196
268.339	3.53913
268.304	3.5363
268.173	3.52333
267.734	3.52143
267.734	3.52143
266.333	3.49835
264.953	3.47539
263.6	3.45268
262.02	3.42554
261.205	3.41128
260.407	3.39727
259.619	3.38339
259.619	3.38339
258.564	3.35309
257.089	3.31734
256.052	3.28892
256.052	3.28892
255.613	3.28206
255.113	3.27731
254.129	3.27056
254.129	3.27056
253.674	3.25158
252.955	3.23008
251.369	3.18767
251.369	3.18767
251.067	3.20496
250.892	3.20093
250.722	3.19691
250.565	3.1929
249.859	3.18669
249.24	3.18478
248.97	3.18029
248.717	3.18017
247.932	3.18261
247.147	3.18517
246.354	3.18797
246.354	3.18797
245.301	3.20843
244.636	3.21859
243.786	3.22715
243.786	3.22715
243.7	3.23387
243.602	3.24072
243.499	3.24781
243.117	3.26786
242.682	3.29013
242.001	3.32202
241.147	3.37144
241.147	3.37144
240.297	3.41092
239.443	3.4504
238.589	3.48987
238.573	3.5073
238.569	3.51084
238.566	3.51463
238.562	3.51855
238.069	3.52446
237.837	3.52434
237.6	3.52421
237.353	3.52407
237.353	3.52407
237.35	3.52801
237.346	3.53194
237.342	3.53588
237.342	3.53588
236.326	3.56738
235.314	3.59888
234.3	3.63037
234.3	3.63037
234.179	3.63986
234.052	3.64935
233.916	3.65884
233.916	3.65884
233.616	3.6615
233.308	3.66429
232.995	3.66731
