Uv/Vis Spectrum: 3,3-dimethylbenzo[c]thiophen-1(3H)-one
Formula: C10H10OS
CAS: 55548-97-5
Melting point: 46-48
Instrument: unknown
Origin: INSTITUTE OF ENERGY PROBLEMS OF CHEMICAL PHYSICS, RAS
Wavelength (nm)	Logarithm epsilon
222.11	3.565
223.11	3.595
224.11	3.629
225.11	3.666
226.11	3.704
227.11	3.743
228.11	3.782
229.11	3.818
230.11	3.853
231.11	3.883
232.11	3.911
233.11	3.934
234.11	3.953
235.11	3.968
236.11	3.98
237.11	3.988
238.11	3.993
239.11	3.997
240.11	3.998
241.11	3.997
242.11	3.995
243.11	3.991
244.11	3.983
245.11	3.97
246.11	3.949
247.11	3.916
247.863	3.871
248.974	3.787
249.974	3.711
250.974	3.658
251.974	3.624
252.974	3.608
253.974	3.605
254.974	3.612
255.974	3.624
256.974	3.638
257.974	3.652
258.974	3.666
259.614	3.677
260.126	3.688
261.126	3.706
262.126	3.72
263.126	3.732
264.126	3.742
265.126	3.751
266.126	3.758
267.126	3.764
268.126	3.768
269.126	3.772
270.126	3.774
271.126	3.774
272.126	3.774
273.126	3.771
274.126	3.767
275.126	3.762
276.126	3.754
277.126	3.745
278.126	3.733
279.126	3.72
280.126	3.704
281.126	3.687
282.126	3.668
283.126	3.647
284.126	3.623
285.126	3.598
286.126	3.57
287.126	3.54
288.126	3.506
289.126	3.47
290.126	3.43
291.126	3.385
