Uv/Vis Spectrum: Benzene, 1-methoxy-3-nitro-
Formula: C7H7NO3
CAS: 555-03-3
Melting point: 38
Instrument: Unicam SP 500
Origin: INSTITUTE OF ENERGY PROBLEMS OF CHEMICAL PHYSICS, RAS
Wavelength (nm)	Logarithm epsilon
209.5	4.221
210.86	4.237
212.38	4.241
213.91	4.241
215.26	4.224
216.45	4.204
217.47	4.18
218.32	4.153
219.34	4.132
220.35	4.112
221.37	4.088
222.9	4.078
224.42	4.075
225.95	4.078
227.48	4.078
228.83	4.065
230.36	4.061
231.72	4.048
233.24	4.038
234.43	4.021
235.62	4
236.64	3.98
237.65	3.956
238.5	3.932
239.01	3.905
239.86	3.882
240.54	3.855
241.39	3.831
241.89	3.804
242.74	3.78
243.42	3.753
244.1	3.726
244.95	3.699
245.79	3.675
246.64	3.651
247.66	3.627
248.85	3.607
250.37	3.604
251.9	3.607
252.75	3.631
254.11	3.644
255.29	3.665
256.31	3.685
257.33	3.705
258.18	3.729
259.36	3.746
260.55	3.763
261.74	3.783
263.1	3.8
264.45	3.817
265.81	3.834
267.17	3.848
268.35	3.865
269.71	3.878
271.24	3.882
272.59	3.892
274.12	3.892
275.65	3.892
277.17	3.885
278.7	3.878
280.06	3.865
281.41	3.855
282.77	3.838
284.13	3.821
285.31	3.804
286.5	3.783
287.69	3.763
288.54	3.739
289.55	3.719
290.57	3.699
291.42	3.675
292.44	3.651
293.63	3.631
294.64	3.61
295.49	3.587
296.51	3.566
297.53	3.546
298.71	3.526
299.9	3.505
301.09	3.485
302.45	3.468
303.63	3.451
304.99	3.434
306.35	3.417
307.7	3.4
309.23	3.394
310.59	3.38
312.11	3.377
313.64	3.373
315.17	3.37
316.69	3.373
318.22	3.373
319.75	3.373
321.27	3.377
322.63	3.387
324.16	3.39
325.68	3.394
327.21	3.397
328.73	3.407
330.26	3.404
331.79	3.404
333.31	3.404
334.84	3.404
336.37	3.404
337.89	3.4
339.42	3.394
340.95	3.383
342.47	3.373
344	3.366
345.36	3.353
346.71	3.339
348.07	3.329
349.43	3.312
350.78	3.299
351.97	3.278
353.33	3.261
354.69	3.244
356.04	3.228
357.23	3.211
358.42	3.194
359.6	3.173
360.79	3.156
361.98	3.136
363	3.116
364.01	3.095
365.03	3.075
366.05	3.055
367.24	3.034
368.42	3.014
369.44	2.99
370.46	2.967
371.48	2.946
372.49	2.926
373.34	2.902
374.36	2.878
375.38	2.855
376.23	2.828
377.07	2.804
377.92	2.777
378.94	2.756
379.79	2.729
380.81	2.706
381.65	2.679
382.67	2.655
383.52	2.628
384.37	2.604
385.05	2.577
385.89	2.553
386.74	2.529
387.59	2.502
388.44	2.479
389.29	2.455
389.96	2.428
390.81	2.404
391.66	2.38
392.34	2.353
393.02	2.326
393.87	2.302
394.37	2.275
395.22	2.251
395.9	2.224
396.75	2.197
397.43	2.17
397.94	2.143
398.78	2.116
399.29	2.089
399.97	2.062
400.82	2.035
401.33	2.007
402.01	1.98
402.69	1.953
403.36	1.926
403.87	1.899
404.55	1.872
405.06	1.845
405.91	1.818
406.59	1.791
407.1	1.763
407.77	1.736
408.28	1.709
408.79	1.682
409.47	1.655
409.98	1.628
410.66	1.601
411.34	1.574
411.84	1.547
412.52	1.519
413.2	1.492
413.54	1.462
414.22	1.435
414.9	1.408
415.41	1.381
415.91	1.353
416.59	1.326
417.1	1.299
417.78	1.272
418.29	1.245
418.8	1.218
419.31	1.191
419.82	1.164
420.49	1.136
421	1.109
421.51	1.082
422.19	1.055
422.87	1.028
423.21	0.998
423.89	0.97
424.4	0.943
424.9	0.916
425.58	0.889
426.09	0.862
426.77	0.835
427.28	0.808
427.62	0.777
428.3	0.75
428.81	0.723
