Uv/Vis Spectrum: 4,4-dimethylbicyclo[3.2.1]oct-6-ene-2,3-dione
Formula: C10H12O2
CAS: 55682-10-5
Melting point: 57-61
Instrument: Hitachi 323
Origin: INSTITUTE OF ENERGY PROBLEMS OF CHEMICAL PHYSICS, RAS
Wavelength (nm)	Logarithm epsilon
235.375	1.8
236.875	1.727
238.375	1.664
239.875	1.614
241.375	1.577
242.875	1.552
244.375	1.538
245.875	1.534
247.375	1.536
248.875	1.543
250.375	1.554
251.875	1.566
253.375	1.579
254.875	1.591
256.375	1.605
257.875	1.618
259.375	1.633
260.875	1.648
262.343	1.665
263.843	1.678
265.343	1.69
266.843	1.701
268.343	1.713
269.843	1.724
271.343	1.735
272.843	1.746
274.343	1.755
275.843	1.764
277.343	1.771
278.843	1.777
280.343	1.78
281.843	1.781
283.343	1.78
284.843	1.777
286.343	1.772
287.843	1.765
289.343	1.756
290.843	1.746
292.343	1.735
293.843	1.723
295.343	1.711
296.843	1.698
298.284	1.686
299.784	1.667
301.284	1.647
302.784	1.626
304.284	1.604
305.784	1.581
307.284	1.558
308.784	1.535
310.284	1.511
311.784	1.487
313.284	1.463
314.784	1.439
316.284	1.415
317.784	1.392
319.284	1.369
320.784	1.347
322.284	1.326
323.784	1.305
325.284	1.286
326.742	1.269
328.242	1.25
329.742	1.229
331.242	1.209
332.742	1.191
334.242	1.175
335.742	1.161
337.242	1.151
338.742	1.145
340.242	1.142
341.742	1.143
343.242	1.147
344.742	1.155
346.242	1.165
347.742	1.178
349.242	1.193
350.742	1.21
352.242	1.229
353.742	1.249
355.242	1.27
356.742	1.293
358.242	1.317
358.571	1.324
360.071	1.351
361.571	1.378
363.071	1.403
364.571	1.427
366.071	1.451
367.571	1.473
369.071	1.494
370.571	1.515
372.071	1.534
373.571	1.553
375.071	1.572
376.571	1.589
378.071	1.606
379.571	1.622
381.071	1.637
382.571	1.652
384.071	1.666
385.571	1.679
387.071	1.692
388.571	1.705
390.071	1.716
391.571	1.727
393.071	1.738
394.571	1.748
396.071	1.757
397.571	1.766
399.071	1.774
400.571	1.782
402.071	1.789
403.571	1.795
405.071	1.801
406.571	1.806
408.071	1.811
409.571	1.815
411.071	1.818
412.571	1.82
414.071	1.822
415.571	1.823
417.071	1.824
418.571	1.824
420.071	1.823
421.571	1.821
423.071	1.818
424.571	1.815
426.071	1.811
427.571	1.806
429.071	1.8
430.571	1.793
432.071	1.786
433.571	1.778
435.071	1.768
436.571	1.758
438.071	1.747
439.571	1.736
441.071	1.723
442.571	1.709
444.071	1.695
445.571	1.68
447.071	1.663
448.571	1.646
450.071	1.628
451.571	1.609
453.071	1.59
454.571	1.569
456.071	1.548
457.571	1.526
459.071	1.503
460.571	1.479
462.071	1.454
463.571	1.429
465.071	1.403
466.571	1.377
468.071	1.35
469.571	1.322
