Uv/Vis Spectrum: 6-(methylthio)-1,2,4-triazolo[3,4-b][1,3,4]thiadiazole-3(2H)-thione
Formula: C4H4N4S3
CAS: 55770-76-8
Melting point: 241-242
Instrument: SF-4
Origin: INSTITUTE OF ENERGY PROBLEMS OF CHEMICAL PHYSICS, RAS
Wavelength (nm)	Logarithm epsilon
233.507	3.938
234.507	3.967
235.507	3.995
236.507	4.021
237.507	4.045
238.507	4.068
239.507	4.089
240.507	4.109
241.507	4.126
242.507	4.143
243.507	4.157
244.507	4.169
245.507	4.18
246.507	4.188
247.507	4.194
248.507	4.198
249.507	4.199
250.507	4.197
251.507	4.193
252.507	4.187
253.507	4.177
253.514	4.177
254.514	4.167
255.514	4.151
256.514	4.13
257.514	4.105
258.514	4.08
259.514	4.054
260.552	4.029
261.552	4.005
262.552	3.98
263.552	3.956
264.552	3.932
265.552	3.908
266.552	3.885
267.552	3.862
268.552	3.84
269.552	3.818
270.552	3.796
271.552	3.776
272.552	3.755
273.552	3.736
274.552	3.717
275.552	3.7
275.56	3.7
276.56	3.682
277.56	3.664
278.56	3.647
279.56	3.631
280.56	3.616
281.56	3.604
282.56	3.594
283.56	3.586
284.56	3.581
285.56	3.578
286.56	3.577
287.56	3.579
288.56	3.582
289.56	3.587
290.56	3.594
291.56	3.602
292.56	3.612
293.56	3.623
294.56	3.636
295.56	3.649
295.567	3.649
296.567	3.666
297.567	3.681
298.567	3.695
299.567	3.708
300.567	3.721
301.567	3.733
302.567	3.745
303.567	3.757
304.567	3.769
305.567	3.781
306.567	3.792
307.567	3.802
308.567	3.812
309.567	3.821
310.567	3.828
311.567	3.835
312.567	3.84
313.567	3.844
314.567	3.846
315.567	3.848
316.567	3.848
317.567	3.847
318.567	3.845
319.567	3.841
320.567	3.838
321.567	3.833
322.567	3.828
323.567	3.822
324.467	3.815
325.467	3.811
326.467	3.804
327.467	3.795
328.467	3.783
329.467	3.77
330.467	3.755
331.467	3.738
332.467	3.721
333.467	3.702
334.467	3.683
335.467	3.663
336.467	3.642
337.467	3.62
338.467	3.597
339.467	3.574
340.467	3.55
341.467	3.525
342.467	3.498
343.467	3.471
344.467	3.443
345.467	3.414
346.467	3.384
347.467	3.353
348.467	3.321
348.735	3.307
