Uv/Vis Spectrum: Ethanedial, dioxime
Formula: C2H4N2O2
CAS: 557-30-2
Melting point: 178
Instrument: Beckman DU
Origin: INSTITUTE OF ENERGY PROBLEMS OF CHEMICAL PHYSICS, RAS
Wavelength (nm)	Logarithm epsilon
205.2	4.048
206.03	4.024
207.04	4
207.88	3.973
208.55	3.946
209.39	3.923
209.89	3.892
210.39	3.865
211.06	3.838
211.73	3.811
212.23	3.784
212.91	3.756
213.41	3.729
214.08	3.702
214.58	3.675
215.42	3.651
216.26	3.624
217.26	3.604
218.27	3.584
219.27	3.563
220.45	3.546
221.79	3.533
223.13	3.516
224.13	3.496
225.31	3.479
226.31	3.458
227.49	3.438
228.49	3.418
229.33	3.391
230.34	3.367
231.17	3.343
232.01	3.319
232.85	3.296
233.69	3.272
234.53	3.248
235.2	3.221
236.03	3.194
236.7	3.167
237.37	3.14
238.04	3.113
238.55	3.086
239.39	3.058
239.89	3.028
240.56	3.001
241.4	2.974
241.9	2.947
242.57	2.92
243.07	2.892
243.58	2.862
244.08	2.835
244.75	2.808
245.25	2.777
245.75	2.75
246.26	2.723
246.76	2.696
247.26	2.669
247.77	2.642
248.44	2.615
248.94	2.588
249.61	2.56
249.78	2.53
250.61	2.506
251.28	2.479
251.96	2.452
252.46	2.425
253.13	2.398
253.63	2.371
254.3	2.344
254.8	2.316
255.64	2.289
256.15	2.262
256.98	2.235
257.65	2.208
258.16	2.181
258.83	2.154
259.5	2.127
260.34	2.103
260.84	2.076
261.51	2.049
262.18	2.022
262.85	1.995
263.52	1.967
264.36	1.944
265.03	1.917
265.7	1.89
266.37	1.862
266.87	1.835
267.54	1.808
268.04	1.781
268.88	1.754
269.39	1.727
270.06	1.7
270.56	1.673
271.23	1.646
271.9	1.618
272.74	1.591
273.41	1.564
274.08	1.537
274.58	1.51
275.42	1.483
276.09	1.456
276.76	1.429
277.6	1.402
278.27	1.375
279.11	1.351
279.61	1.324
280.45	1.297
281.12	1.269
