Uv/Vis Spectrum: 3,6-bis(methylthio)-1,2,4-triazolo[3,4-b][1,3,4]thiadiazole
Formula: C5H6N4S3
CAS: 55770-77-9
Melting point: 168-169
Instrument: SF-4
Origin: INSTITUTE OF ENERGY PROBLEMS OF CHEMICAL PHYSICS, RAS
Wavelength (nm)	Logarithm epsilon
227.57	3.924
228.57	3.904
229.57	3.889
230.57	3.879
231.57	3.873
232.57	3.869
233.57	3.867
234.57	3.866
235.57	3.866
236.57	3.866
237.57	3.868
238.57	3.87
239.57	3.873
240.57	3.877
241.57	3.883
242.57	3.89
243.57	3.899
244.57	3.911
245.57	3.924
246.57	3.939
247.57	3.955
248.57	3.972
249.57	3.99
250.57	4.007
250.576	4.005
251.576	4.023
252.576	4.039
253.576	4.054
254.576	4.067
255.576	4.08
256.576	4.092
257.576	4.102
258.576	4.111
259.576	4.119
260.576	4.124
261.576	4.126
262.576	4.126
263.576	4.123
264.576	4.117
265.576	4.108
266.576	4.097
267.502	4.084
268.502	4.074
269.502	4.061
270.502	4.045
271.502	4.027
272.502	4.008
273.502	3.989
274.502	3.968
275.502	3.947
276.502	3.926
277.502	3.904
278.502	3.883
279.502	3.862
280.502	3.84
281.502	3.818
282.502	3.796
283.502	3.773
284.502	3.748
284.548	3.752
285.548	3.728
286.548	3.703
287.548	3.679
288.548	3.655
289.548	3.632
290.548	3.609
291.548	3.586
292.548	3.563
293.548	3.541
294.548	3.518
295.548	3.496
296.548	3.474
297.548	3.452
298.548	3.43
299.548	3.409
300.548	3.387
301.548	3.365
