Uv/Vis Spectrum: 1-Butene, 3,3-dimethyl-
Formula: C6H12
CAS: 558-37-2
Melting point: -115.2
Boiling point: 41.2
Instrument: Beckman DU
Origin: INSTITUTE OF ENERGY PROBLEMS OF CHEMICAL PHYSICS, RAS
Wavelength (nm)	Logarithm epsilon
170	3.01284
171	3.02
172	3.03
173	3.05
174	3.05
175	3.05
176	3.04
177	3.03
178	3.02
179	2.98
180	2.94
181	2.89
182	2.84
183	2.81
184	2.78
185	2.72
186	2.6
187	2.55
188	2.57
189	2.54
