Uv/Vis Spectrum: Carbon tetrabromide
Formula: CBr4
CAS: 558-13-4
Melting point: 91.5-92
Instrument: Zeiss PMQ II
Origin: INSTITUTE OF ENERGY PROBLEMS OF CHEMICAL PHYSICS, RAS
Wavelength (nm)	Logarithm epsilon
201.22	3.4
201.3	3.398
201.39	3.396
201.48	3.394
201.57	3.392
201.65	3.39
201.74	3.387
201.83	3.383
201.92	3.381
202	3.379
202.09	3.377
202.18	3.375
202.27	3.373
202.36	3.37
202.44	3.366
202.71	3.36
203.24	3.341
203.78	3.324
204.32	3.307
204.86	3.29
205.4	3.273
205.95	3.258
206.5	3.243
207.05	3.228
207.61	3.215
208.17	3.204
208.73	3.198
209.29	3.19
209.86	3.187
210.43	3.177
211.01	3.181
211.58	3.187
212.17	3.2
212.75	3.219
213.34	3.239
213.93	3.258
214.52	3.279
215.12	3.3
215.72	3.326
216.32	3.347
216.93	3.37
217.54	3.394
218.15	3.415
218.77	3.438
219.39	3.458
220.01	3.479
220.64	3.5
221.27	3.519
221.91	3.538
222.55	3.553
223.19	3.575
223.83	3.592
224.48	3.606
225.14	3.624
225.79	3.638
226.46	3.645
227.12	3.653
227.79	3.658
228.46	3.658
229.14	3.655
229.82	3.649
230.51	3.641
231.2	3.626
231.89	3.611
232.59	3.592
233.29	3.57
233.99	3.545
234.7	3.515
235.42	3.487
236.14	3.46
236.86	3.432
237.59	3.404
238.32	3.375
239.06	3.347
239.8	3.317
240.54	3.287
241.3	3.258
242.05	3.226
242.81	3.202
243.58	3.175
244.35	3.151
245.12	3.128
245.9	3.107
246.68	3.094
247.47	3.077
248.27	3.066
249.07	3.06
249.87	3.056
250.68	3.051
251.5	3.051
252.32	3.053
253.14	3.056
253.98	3.056
254.81	3.053
255.66	3.051
256.5	3.045
257.36	3.036
258.22	3.026
259.08	3.013
259.95	2.992
260.83	2.971
261.71	2.949
262.6	2.919
263.5	2.896
264.4	2.873
265.3	2.847
266.22	2.824
267.14	2.798
268.06	2.771
269	2.745
269.93	2.724
270.88	2.715
271.83	2.685
272.79	2.66
273.76	2.632
274.73	2.6
275.71	2.575
276.7	2.547
277.69	2.522
278.69	2.498
279.7	2.471
280.71	2.445
281.74	2.417
282.77	2.39
283.8	2.364
284.85	2.339
285.9	2.307
286.96	2.279
288.03	2.256
289.11	2.23
290.19	2.207
291.29	2.179
292.39	2.158
293.5	2.132
294.62	2.109
295.74	2.084
296.88	2.058
298.02	2.03
299.18	2.001
300.34	1.977
301.51	1.95
302.69	1.924
303.88	1.896
305.08	1.862
306.29	1.828
307.5	1.788
308.73	1.743
309.97	1.694
311.22	1.647
312.47	1.599
313.74	1.545
315.02	1.503
316.31	1.456
317.61	1.416
318.92	1.362
320.24	1.322
321.57	1.271
322.91	1.214
324.27	1.143
