Uv/Vis Spectrum: N-[[2-(methylthio)-5-nitrophenyl]methylene]-2-butanamine
Formula: C12H16N2O2S
CAS: 55969-97-6
Melting point: 69
Instrument: Specord UV-Vis
Origin: INSTITUTE OF ENERGY PROBLEMS OF CHEMICAL PHYSICS, RAS
Wavelength (nm)	Logarithm epsilon
209.564	3.955
210.564	3.995
211.564	4.028
212.564	4.057
213.564	4.082
214.564	4.105
215.564	4.126
216.564	4.144
217.564	4.161
218.564	4.177
219.564	4.191
220.564	4.203
221.564	4.213
222.564	4.221
223.564	4.228
224.564	4.232
225.564	4.233
226.564	4.232
227.564	4.228
228.564	4.222
229.564	4.214
230.564	4.203
231.564	4.19
232.564	4.176
233.564	4.159
234.564	4.141
235.564	4.123
236.564	4.103
237.564	4.084
238.564	4.064
239.564	4.045
240.564	4.027
241.564	4.01
242.564	3.994
243.564	3.98
244.564	3.968
245.564	3.957
246.564	3.947
247.081	3.943
248.081	3.937
249.081	3.93
250.081	3.923
251.081	3.916
252.081	3.908
253.081	3.9
254.081	3.891
255.081	3.883
256.081	3.876
257.081	3.869
258.081	3.864
259.081	3.861
260.081	3.859
261.081	3.859
262.081	3.86
263.081	3.864
264.081	3.868
265.081	3.873
266.081	3.879
267.081	3.884
268.081	3.889
269.081	3.893
270.081	3.894
271.081	3.894
272.081	3.891
273.081	3.884
274.081	3.875
275.081	3.862
276.081	3.847
277.081	3.828
278.081	3.808
278.906	3.791
279.906	3.771
280.906	3.748
281.906	3.724
282.906	3.701
283.906	3.678
284.906	3.657
285.906	3.638
286.906	3.622
287.906	3.608
288.906	3.597
289.906	3.588
290.906	3.582
291.906	3.578
292.906	3.577
293.906	3.578
294.906	3.581
295.906	3.586
296.906	3.593
297.906	3.602
298.906	3.612
299.906	3.625
300.906	3.638
301.906	3.654
302.906	3.671
303.906	3.689
304.906	3.709
305.906	3.729
306.887	3.746
307.887	3.772
308.887	3.795
309.887	3.817
310.887	3.836
311.887	3.854
312.887	3.87
313.887	3.886
314.887	3.9
315.887	3.913
316.887	3.925
317.887	3.937
318.887	3.947
319.887	3.958
320.887	3.967
321.887	3.977
322.887	3.986
323.887	3.994
324.887	4.003
325.887	4.011
326.887	4.018
327.887	4.026
328.887	4.033
329.887	4.04
330.887	4.046
331.887	4.053
332.887	4.059
333.887	4.065
334.887	4.07
335.887	4.075
336.887	4.079
337.887	4.083
338.887	4.087
339.887	4.09
340.887	4.092
341.887	4.094
342.887	4.094
343.887	4.094
344.887	4.094
345.887	4.092
346.887	4.089
347.887	4.086
348.887	4.081
349.887	4.075
350.887	4.068
351.887	4.06
352.887	4.051
353.887	4.04
354.887	4.028
355.887	4.015
356.887	4.001
357.887	3.985
358.887	3.968
359.887	3.95
360.887	3.93
361.887	3.909
362.887	3.888
363.887	3.865
364.887	3.842
365.887	3.818
366.524	3.797
367.524	3.776
368.524	3.753
369.524	3.73
370.524	3.707
371.524	3.684
372.524	3.661
373.524	3.639
374.524	3.617
375.524	3.595
376.524	3.574
377.524	3.553
378.524	3.534
379.524	3.514
380.524	3.496
381.524	3.478
382.524	3.46
383.524	3.444
384.524	3.428
385.524	3.412
386.524	3.397
387.524	3.383
388.524	3.369
389.524	3.355
390.524	3.342
391.524	3.329
392.524	3.316
393.524	3.304
394.524	3.291
395.524	3.279
396.524	3.267
397.524	3.255
398.524	3.244
399.524	3.232
400.524	3.22
401.524	3.208
402.524	3.196
403.524	3.184
404.524	3.172
405.524	3.159
406.524	3.147
407.524	3.135
408.524	3.122
409.524	3.109
410.524	3.097
411.524	3.084
412.524	3.071
413.524	3.058
414.524	3.045
415.524	3.032
416.524	3.019
417.524	3.007
418.524	2.994
419.524	2.982
420.524	2.969
421.524	2.957
422.524	2.945
423.524	2.933
424.524	2.922
425.524	2.911
426.524	2.9
427.524	2.89
428.524	2.88
429.524	2.871
430.524	2.862
431.524	2.853
432.524	2.845
433.524	2.837
434.524	2.83
435.524	2.823
436.524	2.817
437.524	2.811
438.524	2.806
439.524	2.801
440.524	2.797
441.524	2.793
442.524	2.789
443.524	2.785
444.524	2.782
445.524	2.779
446.524	2.776
447.524	2.774
448.524	2.771
449.524	2.769
450.524	2.766
451.524	2.764
452.524	2.761
453.524	2.758
454.524	2.755
455.524	2.752
456.524	2.749
457.524	2.745
458.524	2.742
459.524	2.738
460.524	2.734
461.524	2.73
462.524	2.726
463.524	2.722
464.524	2.718
465.524	2.715
466.524	2.712
467.524	2.71
