Uv/Vis Spectrum: 5-phenyl-2,3-furandione
Formula: C10H6O3
CAS: 55991-67-8
Melting point: 133-134
Instrument: SF-4
Origin: INSTITUTE OF ENERGY PROBLEMS OF CHEMICAL PHYSICS, RAS
Wavelength (nm)	Logarithm epsilon
203.478	3.988
204.478	3.96
205.478	3.937
206.478	3.917
207.478	3.899
208.478	3.88
209.478	3.86
210.478	3.836
211.478	3.809
212.478	3.777
213.478	3.74
214.478	3.698
215.478	3.651
216.478	3.6
217.478	3.545
218.478	3.487
219.478	3.427
220.478	3.367
221.478	3.31
222.478	3.255
223.478	3.208
224.478	3.168
224.929	3.14
225.929	3.134
226.929	3.117
227.929	3.094
228.929	3.071
229.929	3.049
230.929	3.03
231.929	3.015
232.929	3.005
233.929	2.999
234.929	2.996
235.929	2.996
236.929	2.997
237.929	2.999
238.929	3
239.929	3.002
240.929	3.003
241.929	3.003
242.929	3.002
243.929	3.002
244.929	3.003
245.929	3.005
246.929	3.008
247.929	3.014
248.367	3.018
248.617	3.022
248.867	3.026
249.117	3.029
249.367	3.031
249.617	3.032
249.867	3.032
250.117	3.031
250.367	3.029
250.617	3.026
250.867	3.022
251.117	3.018
251.367	3.012
251.617	3.005
251.867	2.997
252.117	2.989
252.367	2.979
252.617	2.968
252.736	2.958
253.736	2.932
254.736	2.91
255.736	2.894
256.736	2.885
257.736	2.878
258.736	2.868
259.736	2.848
260.736	2.815
261.736	2.765
262.736	2.701
263.736	2.63
264.654	2.569
265.654	2.534
266.654	2.521
267.654	2.522
268.654	2.531
269.654	2.546
270.654	2.562
271.654	2.579
272.654	2.595
273.654	2.611
274.654	2.627
275.654	2.644
276.654	2.662
277.654	2.681
278.654	2.701
279.352	2.722
280.352	2.729
281.352	2.738
282.352	2.747
283.352	2.756
284.352	2.763
285.352	2.769
286.352	2.771
287.352	2.771
288.352	2.768
289.352	2.762
290.352	2.753
291.352	2.742
292.352	2.728
293.352	2.712
294.352	2.694
295.352	2.676
296.352	2.658
297.352	2.64
298.352	2.623
299.352	2.608
300.352	2.594
301.352	2.584
302.352	2.576
303.352	2.57
304.352	2.568
305.352	2.568
306.352	2.569
306.364	2.572
307.364	2.568
308.364	2.566
309.364	2.565
310.364	2.567
311.364	2.571
312.364	2.576
313.364	2.583
314.364	2.591
315.364	2.601
316.364	2.612
317.364	2.624
318.364	2.638
319.364	2.652
320.364	2.667
321.364	2.683
322.364	2.7
323.364	2.717
324.364	2.735
325.364	2.754
326.364	2.772
327.364	2.791
328.364	2.81
329.364	2.829
330.364	2.848
331.364	2.867
332.364	2.885
333.364	2.904
334.364	2.921
335.364	2.938
336.364	2.955
337.364	2.97
338.364	2.985
339.336	3
340.336	3.01
341.336	3.021
342.336	3.032
343.336	3.045
344.336	3.057
345.336	3.07
346.336	3.084
347.336	3.097
348.336	3.11
349.336	3.123
350.336	3.136
351.336	3.149
352.336	3.162
353.336	3.174
354.336	3.186
355.336	3.198
356.336	3.21
357.336	3.222
358.336	3.233
359.198	3.245
360.198	3.254
361.198	3.266
362.198	3.278
363.198	3.292
364.198	3.305
365.198	3.319
366.198	3.331
367.198	3.343
368.198	3.354
369.198	3.363
370.198	3.372
371.198	3.379
372.198	3.386
373.198	3.393
374.198	3.401
374.334	3.403
375.334	3.411
376.334	3.419
377.334	3.428
378.334	3.436
379.334	3.443
380.334	3.45
381.334	3.456
382.334	3.46
383.334	3.464
384.334	3.467
385.334	3.468
386.334	3.467
387.334	3.466
388.334	3.462
389.334	3.457
390.334	3.45
391.334	3.442
392.334	3.432
393.334	3.421
394.334	3.408
395.334	3.394
396.334	3.379
397.334	3.363
398.334	3.347
399.334	3.331
400.334	3.315
401.334	3.3
402.334	3.286
402.497	3.286
403.497	3.273
404.497	3.26
405.497	3.247
406.497	3.234
407.497	3.222
408.497	3.209
409.497	3.195
410.497	3.181
411.497	3.167
412.497	3.153
413.497	3.138
414.497	3.122
415.497	3.107
416.497	3.091
417.497	3.076
418.497	3.06
419.497	3.045
420.497	3.03
421.497	3.015
422.497	3.001
423.497	2.986
424.497	2.972
425.497	2.959
426.497	2.945
427.497	2.932
428.497	2.918
429.497	2.904
430.497	2.89
431.497	2.875
432.497	2.858
433.497	2.84
434.497	2.82
435.497	2.797
436.497	2.77
437.497	2.74
438.497	2.704
439.497	2.663
439.838	2.647
440.838	2.598
441.838	2.549
442.838	2.501
443.838	2.455
444.838	2.412
445.838	2.373
446.838	2.338
447.838	2.309
448.838	2.283
449.838	2.262
450.838	2.244
451.838	2.229
452.838	2.215
453.838	2.199
454.838	2.181
455.838	2.157
456.838	2.125
