Uv/Vis Spectrum: 5-(4-methylphenyl)-2,3-furandione
Formula: C11H8O3
CAS: 55991-68-9
Melting point: 131-132
Instrument: SF-4
Origin: INSTITUTE OF ENERGY PROBLEMS OF CHEMICAL PHYSICS, RAS
Wavelength (nm)	Logarithm epsilon
198.237	4.262
198.737	4.241
199.237	4.224
199.737	4.211
200.237	4.199
200.737	4.19
201.237	4.182
201.737	4.174
202.237	4.166
202.737	4.158
203.237	4.149
203.737	4.14
204.237	4.129
204.737	4.116
205.237	4.102
205.737	4.086
206.237	4.068
206.737	4.048
207.237	4.027
207.737	4.004
208.237	3.979
208.737	3.953
209.237	3.925
209.737	3.896
210.237	3.865
210.737	3.834
211.237	3.802
211.737	3.769
212.237	3.736
212.737	3.703
213.237	3.67
213.737	3.637
214.237	3.604
214.665	3.592
215.165	3.552
215.665	3.516
216.165	3.483
216.665	3.452
217.165	3.423
217.665	3.398
218.165	3.374
218.665	3.353
219.165	3.334
219.665	3.317
220.165	3.302
220.665	3.289
221.165	3.277
221.665	3.267
222.165	3.259
222.665	3.252
223.165	3.246
223.665	3.242
224.165	3.239
224.665	3.236
225.165	3.235
225.665	3.235
226.165	3.235
226.665	3.236
227.165	3.238
227.665	3.24
228.165	3.243
228.665	3.246
229.165	3.25
229.665	3.254
230.165	3.258
230.665	3.262
231.165	3.267
231.665	3.271
232.165	3.276
232.665	3.281
233.165	3.285
233.665	3.29
234.165	3.295
234.665	3.299
235.165	3.304
235.665	3.308
236.165	3.312
236.665	3.316
237.165	3.32
237.665	3.323
238.165	3.327
238.665	3.33
239.165	3.333
239.665	3.336
240.165	3.338
240.665	3.341
241.165	3.343
241.665	3.345
242.165	3.347
242.665	3.348
243.165	3.35
243.665	3.351
244.165	3.352
244.665	3.353
245.165	3.354
245.665	3.354
246.165	3.355
246.665	3.355
247.165	3.355
247.665	3.355
248.165	3.355
248.665	3.355
249.165	3.355
249.665	3.354
250.165	3.354
250.665	3.353
251.165	3.352
251.665	3.351
252.165	3.35
252.665	3.348
253.165	3.347
253.278	3.348
253.778	3.345
254.278	3.342
254.778	3.34
255.278	3.337
255.778	3.335
256.278	3.333
256.778	3.33
257.278	3.328
257.778	3.325
258.278	3.322
258.778	3.318
259.278	3.314
259.778	3.309
260.278	3.304
260.778	3.299
261.278	3.293
261.778	3.286
262.278	3.279
262.778	3.272
263.278	3.265
263.778	3.257
264.278	3.249
264.778	3.241
265.278	3.233
265.778	3.225
266.278	3.217
266.778	3.209
267.278	3.201
267.778	3.194
268.278	3.187
268.778	3.181
269.278	3.174
269.778	3.169
270.278	3.164
270.778	3.16
271.278	3.156
271.778	3.153
272.278	3.15
272.778	3.148
273.278	3.147
273.778	3.146
274.278	3.145
274.778	3.145
275.278	3.145
275.778	3.144
276.278	3.144
276.778	3.142
277.278	3.14
277.844	3.141
278.344	3.141
278.844	3.141
279.344	3.141
279.844	3.141
280.344	3.141
280.844	3.141
281.344	3.141
281.844	3.142
282.344	3.142
282.844	3.142
283.344	3.142
283.844	3.143
284.344	3.143
284.844	3.143
285.344	3.144
285.844	3.144
286.344	3.145
286.844	3.146
287.344	3.146
287.844	3.147
288.344	3.148
288.844	3.149
289.344	3.15
289.844	3.151
290.344	3.152
290.844	3.153
291.344	3.155
291.844	3.156
292.344	3.158
292.844	3.159
293.344	3.161
293.844	3.163
294.344	3.165
294.844	3.167
295.344	3.17
295.844	3.172
296.344	3.175
296.844	3.178
297.344	3.18
297.844	3.184
298.344	3.187
298.844	3.19
299.344	3.193
299.844	3.197
300.344	3.201
300.844	3.204
301.344	3.208
301.844	3.212
302.344	3.217
302.844	3.221
303.344	3.225
303.844	3.23
304.344	3.235
304.844	3.239
305.344	3.244
305.844	3.249
306.344	3.254
306.844	3.259
307.344	3.265
307.844	3.27
308.344	3.275
308.844	3.28
309.344	3.286
309.844	3.291
310.344	3.297
310.844	3.302
311.344	3.308
311.844	3.314
312.344	3.319
312.844	3.325
313.344	3.33
313.844	3.336
314.344	3.342
314.844	3.347
315.344	3.353
315.844	3.358
316.344	3.364
316.844	3.369
317.344	3.375
317.844	3.38
318.344	3.385
318.844	3.391
319.344	3.396
319.844	3.401
320.344	3.406
320.844	3.411
321.344	3.416
321.844	3.421
322.344	3.426
322.844	3.431
323.344	3.435
323.844	3.44
324.344	3.445
324.844	3.449
325.344	3.454
325.844	3.458
326.344	3.462
326.844	3.467
327.344	3.471
327.844	3.475
328.344	3.479
328.844	3.483
329.344	3.487
329.844	3.491
330.344	3.495
330.844	3.499
331.344	3.502
331.844	3.506
332.344	3.51
332.844	3.513
333.344	3.517
333.844	3.52
334.344	3.524
334.844	3.527
335.344	3.531
335.844	3.534
336.344	3.538
336.844	3.541
337.344	3.544
337.844	3.547
338.344	3.55
338.844	3.554
339.344	3.557
339.844	3.56
340.344	3.563
340.844	3.566
341.344	3.569
341.844	3.571
342.344	3.574
342.844	3.577
343.344	3.579
343.844	3.582
344.344	3.584
344.844	3.586
345.344	3.588
345.844	3.59
346.344	3.592
346.844	3.593
347.344	3.595
347.844	3.596
348.344	3.597
348.844	3.598
349.344	3.598
349.844	3.599
350.344	3.599
350.844	3.598
351.344	3.598
351.844	3.597
352.344	3.596
352.844	3.594
353.344	3.592
353.844	3.59
354.344	3.587
354.844	3.584
355.344	3.58
355.844	3.576
356.344	3.572
356.844	3.567
357.344	3.562
357.844	3.556
358.344	3.55
358.844	3.543
359.344	3.535
359.844	3.527
360.344	3.519
360.844	3.51
361.344	3.501
361.844	3.491
362.344	3.48
362.844	3.469
363.344	3.458
363.844	3.446
364.344	3.433
364.844	3.421
365.344	3.407
365.844	3.393
366.344	3.379
366.844	3.365
367.344	3.35
367.844	3.335
368.344	3.319
368.844	3.304
369.344	3.288
369.844	3.271
370.344	3.255
370.844	3.238
371.344	3.222
371.844	3.205
372.344	3.188
372.844	3.171
373.344	3.154
373.844	3.137
374.344	3.12
374.844	3.103
375.344	3.086
375.844	3.069
376.344	3.052
376.844	3.035
377.344	3.017
377.844	3
378.344	2.982
378.844	2.963
379.344	2.944
379.844	2.924
380.344	2.903
380.844	2.881
381.344	2.858
381.844	2.833
382.344	2.805
382.844	2.775
383.344	2.743
383.844	2.706
384.344	2.666
384.844	2.621
385.344	2.571
385.844	2.515
386.344	2.452
386.844	2.38
387.344	2.3
387.844	2.209
388.5	2.02
