Uv/Vis Spectrum: 5-(bromophenyl)-2,3-furandione
Formula: C10H5BrO3
CAS: 55991-70-3
Melting point: 136
Instrument: SF-4
Origin: INSTITUTE OF ENERGY PROBLEMS OF CHEMICAL PHYSICS, RAS
Wavelength (nm)	Logarithm epsilon
203.621	4.042
204.621	4.019
205.621	3.995
206.621	3.97
207.621	3.944
208.621	3.918
209.621	3.891
210.621	3.864
211.621	3.837
212.621	3.811
213.621	3.785
214.621	3.76
215.621	3.735
216.621	3.711
217.621	3.688
218.621	3.666
219.621	3.645
220.621	3.625
221.621	3.606
222.621	3.588
223.621	3.572
224.621	3.556
225.621	3.541
226.621	3.528
227.621	3.516
228.621	3.504
229.621	3.494
230.621	3.484
231.621	3.475
232.621	3.467
233.621	3.46
234.621	3.454
235.621	3.448
236.621	3.442
237.621	3.437
238.621	3.433
239.621	3.429
240.621	3.425
241.621	3.422
242.287	3.42
243.287	3.416
244.287	3.414
245.287	3.411
246.287	3.409
247.287	3.407
248.287	3.405
249.287	3.404
250.287	3.402
251.287	3.4
252.287	3.399
253.287	3.399
254.287	3.399
255.287	3.4
256.287	3.401
257.287	3.404
258.287	3.408
259.287	3.413
260.287	3.419
261.287	3.426
262.69	3.436
263.69	3.442
264.69	3.449
265.69	3.455
266.69	3.461
267.69	3.467
268.69	3.471
269.69	3.476
270.69	3.479
271.69	3.482
272.69	3.485
273.69	3.486
274.69	3.487
275.69	3.488
276.69	3.488
277.69	3.488
278.69	3.487
279.69	3.486
280.69	3.485
281.69	3.484
282.69	3.482
283.69	3.481
284.69	3.479
285.69	3.478
286.69	3.477
287.69	3.476
288.69	3.476
289.69	3.476
290.69	3.476
291.69	3.476
292.69	3.477
293.69	3.478
294.69	3.479
295.69	3.481
296.69	3.483
297.69	3.486
298.69	3.488
299.69	3.491
300.69	3.494
301.69	3.497
302.69	3.5
303.69	3.503
304.69	3.506
305.69	3.509
306.69	3.512
307.69	3.515
308.69	3.517
309.69	3.52
310.69	3.522
311.69	3.524
312.69	3.526
313.69	3.528
314.69	3.529
315.69	3.531
316.69	3.532
317.69	3.533
318.69	3.535
319.69	3.536
320.69	3.537
321.69	3.539
322.69	3.54
323.69	3.542
324.69	3.545
325.69	3.547
326.69	3.55
327.69	3.554
328.69	3.558
329.69	3.562
330.69	3.567
331.69	3.572
332.69	3.578
333.69	3.584
334.69	3.59
335.69	3.597
336.69	3.604
337.69	3.611
338.69	3.619
339.69	3.626
340.69	3.633
341.69	3.64
342.69	3.647
343.69	3.653
344.69	3.659
345.69	3.664
346.69	3.668
347.69	3.672
348.375	3.675
349.375	3.678
350.375	3.679
351.375	3.68
352.375	3.68
353.375	3.68
354.375	3.679
355.375	3.678
356.375	3.676
357.375	3.673
358.375	3.67
359.375	3.665
360.375	3.66
361.375	3.653
362.375	3.645
363.375	3.635
364.375	3.624
365.375	3.611
366.375	3.596
367.375	3.58
368.375	3.562
369.375	3.543
370.375	3.522
371.375	3.5
372.375	3.477
373.375	3.453
374.375	3.429
375.375	3.404
376.375	3.379
377.375	3.354
378.375	3.329
379.375	3.305
380.375	3.281
381.375	3.258
382.375	3.236
383.375	3.213
384.375	3.191
385.375	3.168
386.375	3.144
387.375	3.118
388.375	3.089
389.375	3.055
390.375	3.014
391.375	2.965
392.375	2.905
393.484	2.85
394.484	2.792
395.484	2.731
396.484	2.669
397.484	2.606
398.484	2.544
399.484	2.482
400.484	2.422
401.484	2.364
402.484	2.31
403.484	2.258
404.484	2.211
405.484	2.167
406.484	2.128
407.484	2.093
408.484	2.063
409.484	2.036
410.484	2.014
411.484	1.994
412.484	1.978
413.484	1.964
414.484	1.952
415.484	1.941
416.484	1.931
417.484	1.921
418.484	1.911
419.484	1.901
420.484	1.891
421.484	1.88
