Uv/Vis Spectrum: (methylsulfonyl)(4-nitrophenyl)diazene
Formula: C7H7N3O4S
CAS: 56075-39-9
Melting point: 138-139
Instrument: SF-10
Origin: INSTITUTE OF ENERGY PROBLEMS OF CHEMICAL PHYSICS, RAS
Wavelength (nm)	Logarithm epsilon
212.821	3.662
213.821	3.657
214.821	3.651
215.821	3.645
216.821	3.64
217.821	3.634
218.821	3.629
219.821	3.624
220.821	3.619
221.821	3.615
222.821	3.611
223.821	3.608
224.821	3.605
225.821	3.603
226.821	3.601
227.821	3.6
228.821	3.598
229.821	3.598
230.821	3.597
231.821	3.597
232.821	3.598
233.821	3.599
234.821	3.601
235.821	3.603
236.821	3.605
237.821	3.609
238.821	3.613
239.821	3.618
240.821	3.624
241.821	3.631
242.821	3.639
243.821	3.648
244.821	3.658
245.821	3.669
246.821	3.681
247.821	3.694
248.821	3.707
249.821	3.72
250.631	3.727
251.631	3.747
252.631	3.766
253.631	3.786
254.631	3.805
255.631	3.824
256.631	3.843
257.631	3.863
258.631	3.882
259.631	3.902
260.631	3.922
261.631	3.942
262.631	3.962
263.631	3.982
264.631	4.003
265.631	4.024
266.631	4.044
267.631	4.065
268.631	4.085
269.631	4.105
270.631	4.124
271.631	4.142
272.631	4.16
273.631	4.176
274.631	4.19
275.631	4.203
275.635	4.204
276.635	4.213
277.635	4.22
278.635	4.227
279.635	4.232
280.635	4.237
281.635	4.241
282.635	4.244
283.635	4.246
284.635	4.246
285.635	4.246
286.635	4.245
287.635	4.242
288.635	4.238
289.635	4.232
290.635	4.225
291.635	4.217
292.635	4.208
293.635	4.197
294.635	4.185
295.635	4.172
296.635	4.158
297.635	4.142
298.635	4.125
299.635	4.107
300.635	4.087
301.451	4.07
302.451	4.047
303.451	4.025
304.451	4.004
305.451	3.981
306.451	3.958
307.451	3.933
308.451	3.906
309.451	3.879
310.451	3.85
311.451	3.82
312.451	3.789
313.451	3.758
314.451	3.727
315.451	3.696
316.451	3.666
317.451	3.637
318.451	3.608
319.451	3.58
320.451	3.552
321.451	3.523
322.389	3.494
323.389	3.465
324.389	3.433
325.389	3.4
326.389	3.367
327.389	3.334
328.389	3.302
329.389	3.271
330.389	3.242
331.389	3.216
332.389	3.191
333.389	3.169
334.389	3.15
335.389	3.132
336.389	3.117
337.389	3.104
338.389	3.092
339.389	3.081
340.389	3.071
341.389	3.06
342.389	3.047
