Uv/Vis Spectrum: (3-methyl-2-thienyl)phenylmethanone
Formula: C12H10OS
CAS: 56004-62-7
Boiling point: 104-108/0.05 mm
Instrument: unknown
Origin: INSTITUTE OF ENERGY PROBLEMS OF CHEMICAL PHYSICS, RAS
Wavelength (nm)	Logarithm epsilon
210.201	4.356
211.701	4.245
213.201	4.162
214.701	4.1
216.201	4.049
217.701	4.008
219.201	3.975
220.609	3.956
222.109	3.946
223.609	3.934
225.109	3.922
226.609	3.911
228.109	3.903
229.609	3.9
231.109	3.9
232.609	3.906
234.109	3.916
235.609	3.93
237.109	3.948
238.609	3.968
240.109	3.989
241.609	4.011
241.61	4.01
243.11	4.031
244.61	4.047
246.11	4.058
247.61	4.065
249.11	4.068
250.61	4.067
252.11	4.063
253.61	4.057
255.11	4.049
256.61	4.04
258.11	4.033
259.61	4.029
261.11	4.03
262.61	4.037
264.11	4.049
264.283	4.049
265.783	4.063
267.283	4.079
268.783	4.095
270.283	4.109
271.783	4.122
273.283	4.134
274.783	4.144
276.283	4.152
277.783	4.158
279.283	4.163
280.783	4.166
282.283	4.168
283.783	4.167
285.283	4.164
286.771	4.155
288.271	4.147
289.771	4.13
291.271	4.105
292.771	4.074
294.271	4.038
295.771	4.001
297.271	3.964
298.771	3.93
300.271	3.903
301.771	3.882
303.271	3.865
304.771	3.847
304.985	3.843
306.485	3.815
307.985	3.778
309.485	3.732
310.985	3.678
312.485	3.613
313.985	3.54
315.485	3.457
316.985	3.365
318.485	3.268
319.985	3.166
321.485	3.066
322.985	2.969
324.485	2.871
