Uv/Vis Spectrum: Hexobarbital
Formula: C12H16N2O3
CAS: 56-29-1
Melting point: 146-147
Instrument: Zeiss VSU -1
Origin: INSTITUTE OF ENERGY PROBLEMS OF CHEMICAL PHYSICS, RAS
Wavelength (nm)	Logarithm epsilon
205.72	3.556
206.06	3.587
206.57	3.618
207.24	3.645
207.91	3.672
208.59	3.7
209.6	3.72
210.77	3.741
212.12	3.758
213.47	3.768
214.81	3.778
216.33	3.778
217.85	3.778
219.36	3.768
220.71	3.754
222.05	3.737
223.23	3.717
224.41	3.7
225.42	3.679
226.26	3.655
227.27	3.631
228.11	3.607
228.96	3.584
229.8	3.56
230.64	3.532
231.14	3.505
231.99	3.478
232.66	3.45
233.33	3.423
234.01	3.396
234.51	3.369
235.19	3.341
235.69	3.314
236.36	3.287
237.04	3.259
237.71	3.232
238.38	3.205
239.23	3.177
239.9	3.15
240.74	3.126
241.58	3.099
242.42	3.075
243.1	3.048
244.11	3.027
245.12	3.007
245.96	2.983
246.97	2.959
247.98	2.935
248.82	2.911
249.83	2.887
250.67	2.863
251.52	2.836
252.19	2.809
253.03	2.785
253.87	2.758
254.71	2.73
255.39	2.703
256.4	2.679
257.24	2.655
258.08	2.628
259.09	2.607
259.93	2.584
260.94	2.56
261.95	2.536
262.96	2.512
263.97	2.491
264.98	2.471
265.99	2.447
266.84	2.423
267.85	2.399
268.69	2.375
269.53	2.348
270.37	2.324
271.04	2.297
271.89	2.273
272.56	2.246
273.23	2.218
273.74	2.191
274.58	2.164
275.25	2.136
275.93	2.109
276.43	2.082
276.94	2.054
277.44	2.027
277.95	2
278.45	1.973
278.96	1.945
279.46	1.915
279.97	1.884
280.47	1.857
280.98	1.826
281.31	1.795
281.48	1.764
281.82	1.734
282.32	1.703
282.66	1.672
283	1.641
283.33	1.611
283.84	1.58
284.18	1.549
284.51	1.519
284.85	1.488
285.19	1.457
285.52	1.426
285.69	1.396
285.86	1.365
286.2	1.334
286.53	1.304
286.7	1.273
287.04	1.242
287.21	1.211
287.54	1.181
287.71	1.15
288.05	1.119
288.38	1.089
