Uv/Vis Spectrum: 1-methyl-1H-indole-2-carboxamide
Formula: C10H10N2O
CAS: 56297-43-9
Melting point: 166
Instrument: SF-16
Origin: INSTITUTE OF ENERGY PROBLEMS OF CHEMICAL PHYSICS, RAS
Wavelength (nm)	Logarithm epsilon
221.913	4.418
222.913	4.411
223.913	4.405
224.913	4.397
225.913	4.389
226.913	4.38
227.913	4.37
228.913	4.359
229.913	4.347
230.913	4.333
231.913	4.318
232.913	4.302
233.913	4.283
234.913	4.263
235.913	4.241
236.913	4.216
237.913	4.189
238.913	4.159
239.913	4.127
240.913	4.091
241.913	4.052
242.913	4.01
243.913	3.964
244.904	3.917
245.904	3.853
246.904	3.793
247.904	3.738
248.904	3.689
249.904	3.647
250.904	3.613
251.904	3.586
252.904	3.566
253.904	3.554
254.904	3.548
255.904	3.548
256.904	3.553
257.904	3.562
258.904	3.574
259.904	3.588
260.904	3.604
261.904	3.621
262.904	3.637
263.904	3.654
264.904	3.669
265.062	3.672
266.062	3.685
267.062	3.701
268.062	3.719
269.062	3.739
270.062	3.762
271.062	3.787
272.062	3.814
273.062	3.842
274.062	3.871
274.84	3.894
275.84	3.927
276.84	3.958
277.84	3.989
278.84	4.02
279.84	4.05
280.84	4.078
281.84	4.099
283.117	4.122
284.117	4.138
285.117	4.152
286.117	4.165
287.117	4.176
288.117	4.185
289.117	4.193
290.117	4.2
291.117	4.205
292.117	4.208
293.117	4.209
294.117	4.208
295.117	4.206
296.117	4.201
297.117	4.193
298.117	4.184
299.117	4.173
300.117	4.16
301.117	4.145
302.117	4.129
303.117	4.112
304.02	4.095
305.02	4.083
306.02	4.067
307.02	4.048
308.02	4.026
309.02	4.002
310.02	3.977
311.02	3.95
312.02	3.922
313.02	3.894
314.02	3.866
315.02	3.838
316.02	3.811
317.02	3.785
318.02	3.761
319.02	3.74
