Uv/Vis Spectrum: 1-Butene, 2-methyl-
Formula: C5H10
CAS: 563-46-2
Melting point: -137.5
Boiling point: 31.2
Instrument: Fluorite prism vacuum spectrograph
Origin: INSTITUTE OF ENERGY PROBLEMS OF CHEMICAL PHYSICS, RAS
Wavelength (nm)	Logarithm epsilon
208.886	2.14631
208.726	2.1738
208.565	2.20125
208.403	2.22867
208.242	2.25606
208.08	2.28342
207.917	2.31075
207.755	2.33805
207.593	2.36533
207.431	2.39259
207.268	2.41983
207.107	2.44705
206.945	2.47425
206.783	2.50144
206.622	2.52862
206.462	2.55578
206.302	2.58294
206.142	2.61008
205.984	2.63723
205.826	2.66436
205.668	2.6915
205.512	2.71863
205.357	2.74577
205.202	2.77291
205.049	2.80006
204.896	2.82721
204.745	2.85437
204.595	2.88154
204.447	2.90873
204.3	2.93592
204.154	2.96314
204.01	2.99037
203.867	3.01763
203.726	3.0449
203.587	3.0722
203.449	3.09952
203.314	3.12687
203.18	3.15425
203.048	3.18166
202.918	3.2091
202.79	3.23658
202.664	3.26409
202.541	3.29165
202.419	3.31924
202.419	3.31924
202.09	3.35999
201.742	3.3937
201.21	3.42555
201.21	3.42555
200.59	3.42068
199.926	3.41475
199.286	3.41602
199.286	3.41602
198.909	3.43895
198.552	3.46233
198.213	3.4861
197.89	3.51021
197.579	3.53459
197.279	3.55918
196.987	3.58393
196.701	3.60877
196.419	3.63365
196.138	3.6585
195.856	3.68328
195.572	3.7079
195.282	3.73233
194.984	3.75649
194.678	3.78033
194.359	3.80379
194.027	3.82681
193.679	3.84933
193.679	3.84933
193.191	3.86824
192.702	3.88648
192.217	3.9042
191.737	3.92154
191.264	3.93863
190.801	3.95561
190.35	3.97263
189.913	3.98983
189.913	3.98983
189.504	4.0136
189.051	4.03066
188.555	4.04113
188.018	4.04513
187.441	4.04281
186.826	4.03429
186.826	4.03429
186.624	4.02805
186.194	4.02438
185.607	4.02276
184.936	4.02264
184.251	4.02351
183.621	4.02482
183.112	4.02605
182.79	4.02666
182.79	4.02666
182.202	4.01587
181.688	4.0028
181.215	3.98752
180.75	3.97009
180.264	3.9506
179.726	3.92911
179.726	3.92911
179.241	3.92583
178.776	3.91727
178.328	3.90445
177.897	3.88838
177.482	3.87008
177.08	3.85057
176.691	3.83086
176.691	3.83086
175.916	3.80607
175.479	3.79322
175.253	3.78374
175.253	3.78374
174.508	3.78509
173.97	3.78683
173.517	3.78849
173.026	3.78962
172.38	3.78976
172.38	3.78976
171.952	3.77689
171.643	3.76732
171.328	3.762
171.328	3.762
171.318	3.75737
171.307	3.75274
171.291	3.74811
171.291	3.74811
170.682	3.75427
170.162	3.76673
169.657	3.78105
169.097	3.7928
169.097	3.7928
168.277	3.78835
167.736	3.78458
167.33	3.7819
166.92	3.7807
166.92	3.7807
166.427	3.79254
166.034	3.80322
165.708	3.81145
165.416	3.81591
165.125	3.8153
164.805	3.80831
164.423	3.79363
163.949	3.76996
163.949	3.76996
163.629	3.77102
163.31	3.77193
162.992	3.77255
162.992	3.77255
162.582	3.79142
162.223	3.80751
161.901	3.82056
161.605	3.83032
161.322	3.83653
161.04	3.83896
160.747	3.83735
160.433	3.83145
160.084	3.82101
159.691	3.80578
159.242	3.78551
159.242	3.78551
158.829	3.78786
158.345	3.79734
157.885	3.81227
157.542	3.83101
