Uv/Vis Spectrum: 2-Butene, 2,3-dimethyl-
Formula: C6H12
CAS: 563-79-1
Boiling point: 73.2/ 760 mm
Instrument: Unicam SP 500
Origin: INSTITUTE OF ENERGY PROBLEMS OF CHEMICAL PHYSICS, RAS
Wavelength (nm)	Logarithm epsilon
185.07	4.029
185.15	4.032
185.22	4.032
185.29	4.034
185.37	4.036
185.44	4.036
185.51	4.038
185.59	4.04
185.66	4.04
185.74	4.042
185.81	4.044
185.89	4.044
185.96	4.047
186.03	4.049
186.11	4.049
186.18	4.051
186.26	4.053
186.33	4.053
186.41	4.055
186.48	4.057
186.56	4.057
186.63	4.059
186.71	4.062
186.78	4.062
186.86	4.064
186.93	4.066
187.01	4.066
187.08	4.068
187.16	4.07
187.31	4.072
187.53	4.074
187.76	4.074
187.99	4.077
188.22	4.081
188.44	4.083
188.67	4.083
188.9	4.085
189.13	4.085
189.37	4.087
189.6	4.089
189.83	4.092
190.06	4.092
190.29	4.092
190.53	4.092
190.76	4.094
191	4.092
191.23	4.089
191.47	4.089
191.71	4.089
191.94	4.089
192.18	4.089
192.42	4.088
192.66	4.086
192.9	4.084
193.13	4.083
193.38	4.081
193.62	4.079
193.86	4.077
194.1	4.074
194.35	4.072
194.59	4.07
194.84	4.068
195.07	4.065
195.33	4.062
195.57	4.058
195.82	4.053
196.07	4.049
196.31	4.045
196.56	4.04
196.81	4.036
197.06	4.029
197.31	4.025
197.57	4.019
197.79	4.01
198.08	4.001
198.32	3.995
198.58	3.987
198.83	3.978
199.09	3.972
199.34	3.961
199.6	3.951
199.86	3.942
200.11	3.933
200.37	3.924
200.63	3.914
200.89	3.903
201.16	3.893
201.41	3.882
201.68	3.869
201.94	3.858
202.2	3.843
202.44	3.828
202.73	3.811
203	3.8
203.26	3.787
203.53	3.775
203.8	3.761
204.06	3.747
204.33	3.732
204.59	3.716
204.87	3.702
205.14	3.682
205.4	3.666
205.69	3.646
205.96	3.629
206.23	3.61
206.51	3.595
206.78	3.577
207.06	3.558
207.34	3.545
207.61	3.528
207.89	3.513
208.17	3.492
208.43	3.474
208.73	3.451
209.01	3.432
209.3	3.412
209.56	3.395
209.86	3.376
210.15	3.355
210.43	3.335
210.67	3.317
211	3.295
211.29	3.273
211.58	3.254
211.87	3.235
212.16	3.22
212.45	3.202
212.74	3.183
213.03	3.168
213.33	3.151
213.62	3.138
213.91	3.127
214.21	3.11
214.51	3.097
214.8	3.087
215.1	3.076
215.4	3.065
215.7	3.05
216	3.04
216.3	3.027
216.6	3.016
216.9	3.005
217.21	2.995
217.51	2.984
217.82	2.973
218.12	2.965
218.43	2.952
218.73	2.938
219.05	2.924
219.36	2.913
219.67	2.903
219.98	2.89
220.29	2.875
220.61	2.862
220.92	2.847
221.24	2.832
221.55	2.808
221.87	2.795
222.15	2.78
222.51	2.759
222.83	2.744
223.15	2.725
223.47	2.705
223.79	2.686
224.11	2.665
224.44	2.643
224.76	2.624
225.09	2.603
225.41	2.575
225.74	2.543
226.07	2.517
226.4	2.491
226.73	2.457
227.07	2.427
227.37	2.393
227.73	2.352
228.07	2.315
228.4	2.283
228.74	2.249
229.1	2.206
229.42	2.166
229.76	2.118
230.09	2.065
230.44	2.005
230.78	1.953
231.09	1.897
231.47	1.825
231.82	1.767
232.13	1.713
232.51	1.645
232.86	1.591
233.21	1.542
233.57	1.476
233.91	1.42
234.27	1.358
234.62	1.296
234.98	1.242
235.33	1.186
235.71	1.127
236.05	1.075
236.26	1.041
