Uv/Vis Spectrum: Parathion
Formula: C10H14NO5PS
CAS: 56-38-2
Melting point: 6.1
Boiling point: 375
Instrument: Beckman DU
Origin: INSTITUTE OF ENERGY PROBLEMS OF CHEMICAL PHYSICS, RAS
Wavelength (nm)	Logarithm epsilon
210.784	1.60379
211.645	1.60003
212.304	1.59151
213.404	1.58319
214.269	1.57528
214.69	1.5708
215.14	1.5627
216.001	1.55894
216.903	1.54171
217.764	1.53794
217.982	1.52923
218.428	1.52528
219.086	1.51727
219.303	1.50855
219.749	1.5046
220.382	1.49607
220.838	1.48331
221.293	1.47054
221.971	1.44491
222.64	1.4281
223.084	1.40236
223.54	1.3896
223.762	1.37673
224.439	1.35162
224.671	1.32994
225.132	1.31303
225.369	1.2872
225.829	1.27029
226.066	1.24446
226.522	1.2317
226.749	1.21468
227.204	1.20192
227.431	1.1849
228.105	1.16342
228.544	1.14235
228.999	1.12959
229.227	1.11205
229.895	1.09524
230.138	1.08705
230.558	1.08257
230.806	1.06971
231.682	1.05299
232.335	1.04913
232.994	1.04061
233.419	1.0325
236.227	1.0291
236.87	1.03405
237.951	1.04284
238.797	1.05204
239.644	1.06072
239.852	1.06081
240.491	1.06992
241.13	1.07902
241.962	1.10066
242.196	1.10077
243.226	1.13131
243.459	1.13142
243.864	1.14042
244.291	1.15358
244.499	1.15367
244.925	1.16683
245.133	1.16692
245.559	1.18008
245.975	1.18027
246.397	1.19758
246.812	1.19777
247.441	1.21516
247.878	1.21951
248.507	1.23743
248.714	1.23752
249.344	1.25492
249.551	1.25502
250.185	1.26827
250.617	1.27676
250.825	1.27686
251.459	1.29011
251.661	1.29487
252.088	1.30803
252.722	1.32128
252.93	1.32137
253.565	1.33411
253.798	1.33421
254.199	1.34736
254.635	1.35223
255.035	1.36537
255.472	1.36972
256.111	1.3783
256.319	1.3784
256.75	1.38741
257.394	1.39185
257.795	1.405
258.028	1.4051
258.662	1.41836
259.504	1.4317
260.138	1.44495
260.346	1.44505
261.426	1.45435
262.039	1.46293
263.105	1.48519
263.312	1.48528
264.393	1.49407
265.893	1.49941
266.74	1.50809
267.379	1.5172
267.606	1.50018
268.696	1.50067
270.379	1.52736
271.667	1.53624
275.565	1.53385
276.639	1.52551
279.887	1.52282
280.753	1.51439
281.417	1.50172
282.927	1.49825
283.144	1.49005
283.802	1.48153
284.461	1.47301
285.348	1.46926
285.981	1.46072
286.426	1.45677
286.644	1.44805
288.18	1.44459
288.61	1.43182
288.827	1.42362
289.273	1.41915
289.49	1.41095
290.144	1.40657
290.807	1.3939
291.258	1.38581
291.678	1.38185
291.921	1.37314
292.346	1.36451
293.01	1.35184
293.455	1.34789
293.673	1.33969
294.124	1.33108
294.549	1.32245
294.999	1.31435
295.217	1.30563
295.663	1.30168
295.88	1.29296
296.331	1.28487
296.76	1.27209
297.424	1.25942
298.331	1.23804
298.553	1.22517
299.428	1.20845
299.88	1.19984
300.106	1.18282
300.557	1.17473
301.226	1.15739
301.448	1.14452
302.111	1.13237
302.333	1.1195
303.218	1.09397
303.471	1.07696
303.896	1.06833
304.371	1.03846
305.045	1.01698
305.272	0.999965
305.723	0.99135
306.395	0.970384
306.622	0.953373
307.078	0.940606
307.3	0.92774
307.735	0.910816
307.983	0.897962
308.418	0.880522
308.666	0.868186
309.095	0.85541
309.349	0.837885
309.778	0.825634
310.254	0.79524
310.926	0.774276
311.153	0.757259
311.609	0.744496
311.836	0.726963
312.297	0.710058
312.524	0.693041
313.414	0.663352
313.889	0.633489
314.562	0.611999
314.789	0.594989
315.245	0.582222
315.467	0.56935
315.902	0.552437
316.154	0.535433
316.584	0.522653
316.842	0.500991
317.272	0.488212
317.737	0.467149
317.955	0.458426
318.415	0.441522
318.637	0.428653
319.089	0.420038
319.31	0.407697
319.766	0.394924
320.449	0.364626
321.091	0.347798
321.755	0.335137
322.007	0.318126
322.427	0.314162
322.675	0.301312
323.095	0.297345
323.344	0.284498
323.769	0.275864
324.224	0.263115
324.649	0.255007
325.095	0.250518
325.318	0.237669
325.971	0.233808
326.219	0.220944
326.847	0.217089
327.095	0.204229
327.753	0.195706
328.178	0.187605
328.629	0.178977
329.288	0.170467
329.708	0.166489
330.159	0.15788
330.812	0.154028
331.268	0.141262
331.896	0.137386
332.347	0.128787
332.797	0.120673
333.659	0.116408
334.742	0.099784
335.629	0.096006
336.5	0.083431
337.159	0.074926
338.03	0.062356
339.124	0.058692
339.554	0.045909
340.856	0.042339
341.312	0.029587
341.737	0.020982
342.837	0.013174
343.703	0.004708
343.92	-0.003488
344.574	-0.007889
344.822	-0.020725
346.342	-0.033014
346.766	-0.041102
347.42	-0.045516
348.524	-0.057446
349.188	-0.070121
349.405	-0.078834
350.058	-0.082705
350.722	-0.095339
351.147	-0.10397
351.598	-0.112102
352.044	-0.116566
352.469	-0.124649
352.92	-0.133299
353.345	-0.141884
353.998	-0.145755
354.246	-0.158641
354.9	-0.162475
355.537	-0.175159
355.988	-0.183759
356.646	-0.191789
357.098	-0.200384
357.517	-0.204328
358.181	-0.217026
358.839	-0.225556
359.295	-0.238298
359.715	-0.2423
360.175	-0.259164
361.037	-0.262966
361.254	-0.271646
361.705	-0.280255
362.359	-0.284164
362.581	-0.297053
363.473	-0.304956
363.695	-0.317765
364.115	-0.322302
364.779	-0.334888
365.229	-0.34304
365.68	-0.35164
365.897	-0.359817
366.551	-0.364215
366.976	-0.372327
367.427	-0.380907
367.644	-0.389659
368.095	-0.397723
368.546	-0.406382
368.966	-0.410385
369.634	-0.427128
370.085	-0.435808
370.51	-0.444422
370.961	-0.452471
371.178	-0.461175
371.624	-0.465213
371.846	-0.478078
372.292	-0.482013
374.953	-0.562725
375.399	-0.56671
375.621	-0.579549
376.285	-0.592269
376.533	-0.605198
376.958	-0.613679
377.18	-0.626536
377.631	-0.634699
377.853	-0.647625
