Uv/Vis Spectrum: 4,5,6,7-tetrahydro-1,2,3-benmzothiadiazole
Formula: C6H8N2S
CAS: 56382-72-0
Boiling point: 51-55/0.01 mm
Instrument: Cary 15
Origin: INSTITUTE OF ENERGY PROBLEMS OF CHEMICAL PHYSICS, RAS
Wavelength (nm)	Logarithm epsilon
201.29	3.513
202.29	3.54
203.29	3.535
204.29	3.515
205.29	3.492
206.29	3.473
207.29	3.462
208.29	3.462
209.29	3.472
210.29	3.489
211.29	3.512
212.29	3.538
213.29	3.564
214.29	3.586
215.29	3.604
216.29	3.615
217.29	3.62
218.29	3.619
219.29	3.612
220.29	3.602
221.29	3.589
222.29	3.574
223.29	3.558
225.08	3.507
226.08	3.456
227.08	3.404
228.08	3.352
229.08	3.299
230.08	3.247
231.08	3.196
232.08	3.149
233.08	3.106
234.08	3.067
235.08	3.036
236.08	3.011
237.08	2.996
238.08	2.989
239.08	2.993
240.08	3.008
241.08	3.034
242.08	3.072
243.08	3.12
243.14	3.125
244.14	3.178
245.14	3.219
246.14	3.252
247.14	3.278
248.14	3.301
249.14	3.321
250.14	3.341
251.14	3.361
252.14	3.382
253.14	3.404
254.14	3.426
255.14	3.448
256.14	3.469
257.14	3.489
258.14	3.507
259.14	3.522
260.14	3.533
261.14	3.539
262.14	3.539
263.14	3.534
264.14	3.522
265.14	3.504
266.14	3.48
267.14	3.451
268.14	3.418
269.14	3.383
270.072	3.342
271.072	3.316
272.072	3.289
273.072	3.261
274.072	3.231
275.072	3.201
276.072	3.169
277.072	3.136
278.072	3.102
279.072	3.066
280.072	3.03
281.072	2.992
282.072	2.954
283.072	2.914
284.072	2.873
285.072	2.83
286.072	2.787
287.072	2.743
288.072	2.697
289.072	2.65
290.072	2.603
291.072	2.554
292.072	2.504
293.072	2.453
294.072	2.4
295.072	2.347
296.072	2.293
297.072	2.237
298.072	2.181
298.87	2.13
299.87	2.063
300.87	1.995
301.87	1.93
302.87	1.87
303.87	1.817
304.87	1.773
305.87	1.737
306.87	1.71
307.87	1.69
308.87	1.679
309.87	1.673
310.87	1.673
311.87	1.677
312.87	1.684
313.87	1.694
314.87	1.704
315.87	1.714
316.87	1.724
317.87	1.732
318.87	1.74
319.87	1.745
320.87	1.749
321.87	1.751
322.87	1.752
323.87	1.752
324.87	1.75
325.87	1.746
326.87	1.741
327.87	1.734
328.87	1.723
329.87	1.707
330.87	1.683
331.87	1.648
332.87	1.598
333.261	1.577
