Uv/Vis Spectrum: 2-Butanone, 3-methyl-
Formula: C5H10O
CAS: 563-80-4
Melting point: -92
Boiling point: 94.3
Instrument: Beckman spectrophotometer
Origin: INSTITUTE OF ENERGY PROBLEMS OF CHEMICAL PHYSICS, RAS
Wavelength (nm)	Logarithm epsilon
240	0.469999
241	0.469999
242	0.469999
243	0.469999
244	0.600003
245	0.600003
246	0.600003
247	0.690001
248	0.690001
249	0.769997
250	0.799341
251	0.839999
252	0.900001
253	0.900001
254	0.95
255	1
256	1
257	1.04
258	1.07
259	1.07
260	1.10998
261	1.14
262	1.14
263	1.17
264	1.17
265	1.2
266	1.23
267	1.23
268	1.25
269	1.27
270	1.27
271	1.3
272	1.3
273	1.32
274	1.32
275	1.34
276	1.34
277	1.34
278	1.34
279	1.34
280	1.34001
281	1.34
282	1.34
283	1.32
284	1.32
285	1.32
286	1.3
287	1.27
288	1.27
289	1.25
290	1.22999
291	1.2
292	1.17
293	1.14
294	1.11
295	1.07
296	1.07
297	1.04
298	1
299	0.95
