Uv/Vis Spectrum: 4,5,6,7-tetrahydro-1,2,3-benzothiadiazole-2-oxide
Formula: C6H8N2OS
CAS: 56382-76-4
Melting point: 85
Instrument: Cary 15
Origin: INSTITUTE OF ENERGY PROBLEMS OF CHEMICAL PHYSICS, RAS
Wavelength (nm)	Logarithm epsilon
203	3.77
204	3.78
205	3.789
206	3.794
207	3.792
208	3.783
209	3.768
210	3.746
211	3.721
212	3.694
213	3.666
214	3.638
215	3.61
215.889	3.577
216.889	3.548
217.889	3.509
218.889	3.466
219.889	3.42
220.889	3.376
221.889	3.336
222.889	3.301
223.889	3.272
224.889	3.251
225.889	3.239
226.889	3.233
227.889	3.236
228.889	3.245
229.889	3.26
230.889	3.281
231.889	3.305
232.889	3.331
233.889	3.358
234.889	3.385
235.889	3.41
236.889	3.432
237.784	3.448
238.784	3.465
239.784	3.472
240.784	3.474
241.784	3.472
242.784	3.468
243.784	3.463
244.784	3.457
245.784	3.449
246.784	3.439
247.784	3.426
248.784	3.41
249.784	3.391
250.784	3.37
251.822	3.347
252.822	3.323
253.822	3.299
254.822	3.274
255.822	3.25
256.822	3.226
257.822	3.205
258.822	3.185
259.822	3.17
260.822	3.158
261.822	3.152
262.822	3.152
263.822	3.157
264.822	3.17
265.822	3.188
266.822	3.212
267.822	3.241
268.822	3.273
269.98	3.312
270.98	3.355
271.98	3.398
272.98	3.442
273.98	3.485
274.98	3.529
275.98	3.572
276.98	3.613
277.98	3.654
278.98	3.692
279.98	3.728
280.98	3.762
281.98	3.793
282.98	3.821
283.98	3.846
284.98	3.867
285.98	3.885
286.98	3.9
287.98	3.911
288.98	3.919
289.98	3.925
290.832	3.922
291.832	3.928
292.832	3.928
293.832	3.924
294.832	3.917
295.832	3.906
296.832	3.893
297.832	3.878
298.832	3.861
299.832	3.844
300.832	3.827
301.832	3.808
302.832	3.79
303.832	3.77
304.832	3.748
305.832	3.724
306.832	3.695
307.832	3.661
308.832	3.619
309.832	3.567
310.832	3.504
311.832	3.427
312.832	3.333
313.788	3.253
314.788	3.156
315.788	3.055
316.788	2.95
317.788	2.843
318.788	2.734
319.788	2.623
320.788	2.511
321.788	2.397
