Uv/Vis Spectrum: Glycine
Formula: C2H5NO2
CAS: 56-40-6
Melting point: 262 dec
Instrument: Quartz spectrograph
Origin: INSTITUTE OF ENERGY PROBLEMS OF CHEMICAL PHYSICS, RAS
Wavelength (nm)	Logarithm epsilon
213.73	1.451
213.99	1.446
214.25	1.44
214.51	1.435
214.77	1.413
215.8	1.385
216.84	1.358
217.88	1.32
218.91	1.292
219.95	1.259
220.98	1.221
223.06	1.133
224.09	1.106
225.13	1.056
226.17	0.979
227.2	0.963
228.24	0.925
229.27	0.903
230.31	0.826
231.35	0.798
232.38	0.749
233.42	0.689
234.46	0.612
235.49	0.579
236.53	0.513
237.56	0.431
238.6	0.376
239.64	0.244
240.67	0.206
241.71	0.14
242.75	0.058
243.78	-0.003
244.82	-0.129
245.85	-0.2
246.89	-0.305
247.93	-0.409
248.96	-0.497
250	-0.672
