Uv/Vis Spectrum: N,N-dimethyldibenzo[c,e][1,2]dithiin-2-amine
Formula: C14H13NS2
CAS: 56474-70-5
Instrument: SFD-2
Origin: INSTITUTE OF ENERGY PROBLEMS OF CHEMICAL PHYSICS, RAS
Wavelength (nm)	Logarithm epsilon
233.035	4.198
235.535	4.204
238.035	4.219
240.535	4.233
243.035	4.239
245.535	4.239
248.035	4.233
250.535	4.227
253.035	4.222
255.535	4.221
258.035	4.225
260.535	4.233
263.035	4.242
263.28	4.243
265.78	4.25
268.28	4.251
270.78	4.246
273.28	4.234
275.78	4.219
278.28	4.203
280.78	4.187
283.28	4.17
285.78	4.146
288.28	4.112
290.78	4.062
293.28	3.997
295.78	3.924
300.43	3.808
302.93	3.752
305.43	3.705
307.93	3.665
310.43	3.63
312.93	3.599
315.318	3.567
317.818	3.546
320.318	3.521
322.818	3.496
325.318	3.473
327.818	3.453
330.318	3.436
332.818	3.421
335.318	3.408
337.818	3.395
340.318	3.38
342.818	3.363
345.318	3.341
347.818	3.316
350.318	3.286
352.818	3.252
355.318	3.215
357.818	3.178
357.927	3.177
360.427	3.136
362.927	3.107
365.427	3.086
367.927	3.071
370.427	3.063
372.927	3.059
375.427	3.059
377.927	3.062
380.427	3.064
382.927	3.065
385.427	3.065
387.927	3.067
389.817	3.075
392.317	3.078
394.817	3.076
397.317	3.071
399.817	3.062
402.317	3.05
404.817	3.037
407.317	3.023
409.817	3.009
412.317	2.993
414.817	2.972
417.192	2.948
419.692	2.898
422.192	2.865
424.692	2.833
427.192	2.795
429.692	2.749
432.192	2.696
434.692	2.64
437.192	2.583
439.692	2.527
442.192	2.473
444.692	2.419
447.192	2.363
449.692	2.301
452.192	2.232
454.692	2.158
457.192	2.086
459.692	2.035
