Uv/Vis Spectrum: Quinine
Formula: C20H24N2O2
CAS: 56-54-2
Melting point: 175 (decomp.)
Instrument: unknown
Origin: INSTITUTE OF ENERGY PROBLEMS OF CHEMICAL PHYSICS, RAS
Wavelength (nm)	Logarithm epsilon
220.62	2.618
220.93	2.616
221.25	2.592
221.87	2.574
222.49	2.56
223.11	2.538
223.74	2.529
224.36	2.515
224.98	2.501
225.61	2.481
226.23	2.47
226.85	2.46
227.47	2.458
228.72	2.456
229.34	2.456
229.97	2.456
230.59	2.458
231.21	2.463
231.83	2.468
232.46	2.481
233.08	2.497
233.7	2.509
234.33	2.521
234.95	2.535
235.57	2.543
236.19	2.575
236.82	2.599
237.44	2.626
238.06	2.636
238.69	2.663
239.31	2.685
239.93	2.703
240.55	2.738
241.18	2.75
241.8	2.759
242.42	2.776
243.04	2.787
243.67	2.804
244.29	2.818
244.91	2.845
245.54	2.857
246.16	2.864
246.78	2.867
247.4	2.869
248.03	2.867
248.65	2.865
249.27	2.86
249.9	2.856
250.52	2.85
251.14	2.843
251.76	2.822
252.39	2.784
253.01	2.74
253.63	2.691
254.26	2.635
254.88	2.601
255.5	2.534
256.12	2.453
256.75	2.352
257.37	2.22
257.99	2.088
258.62	1.804
259.24	1.694
259.86	1.639
260.8	1.605
261.11	1.577
262.35	1.429
263.91	1.321
265.47	1.224
267.02	1.202
268.58	1.224
270.14	1.285
271.7	1.321
273.25	1.386
274.81	1.442
276.37	1.48
277.92	1.515
279.48	1.567
281.04	1.596
282.6	1.639
284.15	1.672
285.71	1.702
287.27	1.756
288.82	1.787
290.38	1.816
291.94	1.843
293.49	1.878
295.05	1.906
296.61	1.915
298.17	1.941
299.72	1.961
301.28	1.984
302.84	1.996
304.39	2.014
305.95	2.027
307.51	2.041
309.07	2.044
310.62	2.038
312.18	2.027
313.74	2.017
315.29	2.003
316.85	1.999
318.41	1.999
319.97	2.014
321.52	2.021
323.08	2.041
324.64	2.057
326.19	2.076
327.75	2.094
329.31	2.103
330.87	2.114
332.42	2.122
333.98	2.128
335.54	2.13
337.09	2.13
338.65	2.128
340.21	2.125
341.76	2.122
343.32	2.117
344.88	2.108
346.44	2.094
347.99	2.073
349.55	2.044
351.11	2.014
352.66	1.977
354.22	1.941
355.78	1.883
357.34	1.837
358.89	1.787
360.45	1.75
362.01	1.702
363.56	1.664
365.12	1.605
366.68	1.536
368.24	1.468
369.79	1.401
371.35	1.338
372.91	1.266
374.46	1.224
376.02	1.127
377.58	1.037
379.13	0.923
380.69	0.826
382.25	0.826
