Uv/Vis Spectrum: L-Glutamic acid
Formula: C5H9NO4
CAS: 56-86-0
Melting point: 224 dec
Boiling point: sub 175
Instrument: Beckman DU
Origin: INSTITUTE OF ENERGY PROBLEMS OF CHEMICAL PHYSICS, RAS
Wavelength (nm)	Logarithm epsilon
200.41	2.511
200.54	2.505
200.69	2.5
200.85	2.494
201.12	2.483
201.49	2.466
202.02	2.445
202.57	2.424
203.11	2.402
203.65	2.38
204.19	2.357
204.7	2.333
205.25	2.311
205.81	2.287
206.35	2.264
207.43	2.215
207.97	2.187
208.51	2.162
209.53	2.115
210.13	2.087
210.68	2.064
211.22	2.039
211.76	2.014
213.37	1.939
214.01	1.908
214.57	1.882
215.17	1.857
215.62	1.838
216.08	1.815
216.62	1.786
217.23	1.756
217.76	1.733
218.24	1.707
218.78	1.685
219.33	1.654
219.93	1.623
220.42	1.595
220.91	1.565
221.49	1.527
222.03	1.499
