Uv/Vis Spectrum: L-Glutamine
Formula: C5H10N2O3
CAS: 56-85-9
Melting point: 185-6 dec
Instrument: Beckman DU
Origin: INSTITUTE OF ENERGY PROBLEMS OF CHEMICAL PHYSICS, RAS
Wavelength (nm)	Logarithm epsilon
200.23	3.017
200.46	2.974
200.81	2.918
200.93	2.908
201.04	2.897
201.16	2.886
201.27	2.875
201.39	2.864
201.51	2.852
201.62	2.843
201.74	2.833
201.85	2.825
201.97	2.816
202.08	2.805
202.2	2.796
202.32	2.779
202.43	2.77
202.55	2.761
202.66	2.754
202.78	2.743
202.9	2.735
203.01	2.727
203.12	2.718
203.25	2.71
203.34	2.703
203.48	2.692
203.59	2.686
203.71	2.68
204.03	2.66
204.33	2.642
204.52	2.63
204.77	2.616
205.07	2.6
205.32	2.586
205.44	2.579
205.56	2.572
205.87	2.557
206.1	2.545
206.45	2.529
206.7	2.519
206.95	2.51
207.07	2.504
207.48	2.489
207.96	2.473
208.31	2.461
208.69	2.448
208.92	2.44
209.03	2.437
209.18	2.433
209.27	2.431
209.38	2.427
209.5	2.424
209.61	2.421
209.73	2.418
209.85	2.414
209.96	2.411
210.08	2.408
210.19	2.404
210.5	2.396
210.63	2.392
210.81	2.387
210.95	2.383
211.14	2.377
211.35	2.37
211.7	2.357
211.81	2.353
211.93	2.35
212.05	2.346
212.16	2.342
212.28	2.338
212.47	2.333
212.63	2.328
212.74	2.326
212.83	2.322
212.95	2.319
213.11	2.315
213.2	2.313
213.32	2.309
213.44	2.305
213.55	2.3
213.63	2.299
213.78	2.296
213.9	2.293
214.01	2.291
214.13	2.287
214.24	2.284
214.37	2.281
214.48	2.278
214.57	2.275
214.7	2.272
214.83	2.269
214.94	2.264
215.05	2.262
215.16	2.258
215.25	2.256
215.36	2.253
215.5	2.249
215.61	2.247
215.73	2.244
215.87	2.24
215.96	2.237
216.1	2.233
216.22	2.23
216.33	2.226
216.45	2.223
216.59	2.22
216.71	2.217
216.81	2.215
216.89	2.213
216.98	2.211
217.09	2.208
217.26	2.203
217.35	2.2
217.47	2.196
217.61	2.192
217.72	2.19
217.82	2.187
217.94	2.184
218.07	2.181
218.18	2.178
218.3	2.175
218.42	2.172
218.53	2.17
218.66	2.166
218.76	2.164
218.88	2.16
219.02	2.156
219.13	2.152
219.26	2.148
219.34	2.145
219.46	2.142
219.58	2.139
219.69	2.136
219.81	2.133
219.92	2.13
220.04	2.126
220.17	2.122
220.28	2.118
220.38	2.115
220.49	2.111
220.62	2.106
220.73	2.103
220.85	2.1
220.96	2.097
221.05	2.095
221.18	2.093
221.31	2.091
221.42	2.088
221.54	2.086
221.67	2.083
221.77	2.08
221.89	2.078
222.01	2.076
222.13	2.073
222.23	2.071
222.35	2.068
222.47	2.064
222.59	2.06
222.7	2.056
222.82	2.052
222.93	2.048
223.05	2.045
223.17	2.041
223.39	2.035
223.84	2.024
224.39	2.016
