Uv/Vis Spectrum: 5-[[4-(diethylamino)phenyl]methylene]-2-phenylamino-4(5H)-thiazolone
Formula: C20H21N3OS
CAS: 56843-54-0
Melting point: 246
Instrument: SF-8
Origin: INSTITUTE OF ENERGY PROBLEMS OF CHEMICAL PHYSICS, RAS
Wavelength (nm)	Logarithm epsilon
228.14	4.207
230.14	4.21
232.14	4.215
234.14	4.221
236.14	4.227
238.14	4.231
240.14	4.234
242.14	4.235
243.477	4.235
245.477	4.232
247.477	4.228
249.477	4.22
251.477	4.211
253.477	4.198
255.477	4.183
257.477	4.167
259.171	4.157
261.171	4.15
263.171	4.145
265.171	4.142
267.171	4.141
269.171	4.143
271.171	4.147
273.171	4.151
275.171	4.155
277.171	4.159
279.171	4.162
281.171	4.163
283.171	4.165
285.171	4.165
287.171	4.166
289.171	4.166
291.171	4.167
293.499	4.166
295.499	4.163
297.499	4.161
299.499	4.158
301.499	4.155
303.499	4.152
305.499	4.147
307.499	4.142
309.499	4.136
311.499	4.129
313.499	4.122
315.499	4.114
317.499	4.105
319.499	4.096
321.499	4.085
323.499	4.073
325.499	4.06
327.499	4.044
329.499	4.026
331.499	4.006
333.499	3.983
335.499	3.958
337.499	3.93
339.499	3.9
341.499	3.868
341.595	3.867
343.595	3.837
345.595	3.8
347.595	3.764
349.595	3.738
351.595	3.727
353.595	3.732
355.595	3.752
356.908	3.773
358.021	3.791
360.021	3.831
362.021	3.871
364.021	3.91
366.021	3.949
368.021	3.988
370.021	4.027
372.021	4.067
374.021	4.106
376.021	4.145
378.021	4.184
380.021	4.221
382.021	4.258
384.021	4.292
386.021	4.325
388.021	4.355
390.021	4.383
392.021	4.409
394.021	4.433
396.021	4.456
398.021	4.477
400.021	4.499
401.536	4.515
403.536	4.541
405.536	4.564
407.536	4.583
409.536	4.599
411.536	4.614
413.536	4.626
415.536	4.637
417.536	4.647
419.536	4.656
421.536	4.664
423.536	4.671
425.536	4.677
427.536	4.682
429.536	4.686
431.536	4.688
433.536	4.689
435.536	4.688
437.536	4.686
439.536	4.681
441.536	4.674
443.536	4.665
445.536	4.654
447.536	4.641
449.536	4.625
451.536	4.608
453.536	4.588
455.536	4.567
457.536	4.545
458.192	4.538
459.789	4.522
461.789	4.497
463.789	4.466
465.789	4.431
467.789	4.391
469.789	4.349
471.789	4.306
473.789	4.262
475.789	4.217
477.789	4.173
479.789	4.13
481.789	4.087
483.789	4.045
485.789	4.005
487.789	3.965
489.789	3.926
