Uv/Vis Spectrum: L-Cystine
Formula: C6H12N2O4S2
CAS: 56-89-3
Boiling point: 258-261 dec.
Instrument: Unicam SP 500
Origin: INSTITUTE OF ENERGY PROBLEMS OF CHEMICAL PHYSICS, RAS
Wavelength (nm)	Logarithm epsilon
186.97	3.963
187.04	3.961
187.12	3.959
187.19	3.956
187.26	3.954
187.34	3.952
187.41	3.95
187.49	3.948
187.56	3.946
187.64	3.944
187.71	3.941
187.79	3.939
187.86	3.937
187.94	3.935
188.02	3.933
188.24	3.905
188.7	3.886
189.15	3.869
189.61	3.85
190.07	3.831
190.54	3.812
191	3.795
191.47	3.775
191.94	3.754
192.41	3.735
192.89	3.716
193.37	3.692
193.85	3.675
194.33	3.652
194.81	3.635
195.3	3.616
195.79	3.599
196.28	3.582
196.77	3.564
197.27	3.547
197.77	3.533
198.27	3.516
198.78	3.503
199.28	3.488
199.79	3.473
200.3	3.456
200.82	3.443
201.34	3.428
201.86	3.413
202.38	3.403
202.91	3.388
203.43	3.375
203.96	3.36
204.5	3.349
205.03	3.332
205.57	3.32
206.12	3.305
206.66	3.292
207.21	3.277
207.76	3.262
208.31	3.249
208.87	3.232
209.43	3.211
209.99	3.198
210.56	3.179
211.13	3.162
211.7	3.143
212.28	3.124
212.85	3.102
213.44	3.081
214.02	3.058
214.61	3.032
215.2	3.009
215.79	2.979
216.39	2.951
216.99	2.926
217.6	2.896
218.2	2.866
218.81	2.838
219.43	2.806
220.05	2.774
220.67	2.736
221.29	2.702
221.92	2.672
222.55	2.644
223.19	2.621
223.83	2.595
224.47	2.578
225.12	2.557
225.77	2.54
226.42	2.527
227.08	2.517
227.74	2.506
228.41	2.5
229.08	2.491
229.75	2.487
230.43	2.48
231.11	2.478
231.8	2.478
232.48	2.478
233.18	2.48
233.88	2.483
234.58	2.485
235.28	2.487
236	2.489
236.71	2.493
237.43	2.497
238.15	2.495
238.88	2.5
239.61	2.504
240.35	2.504
241.09	2.506
241.84	2.508
242.59	2.51
243.34	2.514
244.1	2.514
244.87	2.519
245.64	2.521
246.41	2.523
247.19	2.523
247.98	2.521
248.77	2.521
249.56	2.519
250.36	2.517
251.17	2.514
251.98	2.508
252.79	2.506
253.61	2.502
254.44	2.495
255.27	2.489
256.1	2.483
256.95	2.474
257.79	2.463
258.65	2.453
259.51	2.442
260.37	2.429
261.24	2.417
262.12	2.406
263	2.393
263.89	2.38
264.78	2.365
265.68	2.353
266.59	2.336
267.5	2.319
268.42	2.302
269.35	2.282
270.28	2.261
271.22	2.242
272.16	2.221
273.11	2.199
274.07	2.176
275.03	2.155
276.01	2.129
276.98	2.106
277.97	2.08
278.96	2.057
279.96	2.027
280.97	2.001
281.98	1.974
283	1.946
284.03	1.918
285.07	1.888
286.11	1.856
287.16	1.829
288.22	1.792
289.29	1.763
290.36	1.729
291.45	1.697
292.54	1.665
293.64	1.633
294.74	1.601
295.86	1.565
296.98	1.524
298.12	1.49
299.26	1.456
300.41	1.422
301.57	1.386
302.74	1.349
303.91	1.307
305.1	1.271
306.3	1.23
307.5	1.19
308.72	1.154
309.94	1.113
