Uv/Vis Spectrum: 1,8-Dimethylnaphthalene
Formula: C12H12
CAS: 569-41-5
Melting point: 65
Boiling point: 270
Instrument: n.i.g.
Origin: INSTITUTE OF ENERGY PROBLEMS OF CHEMICAL PHYSICS, RAS
Wavelength (nm)	Logarithm epsilon
324.363	2.00474
324.308	2.03579
324.253	2.06684
324.197	2.09788
324.142	2.12892
324.086	2.15996
324.03	2.191
323.974	2.22203
323.917	2.25306
323.861	2.28409
323.804	2.31512
323.747	2.34614
323.69	2.37716
323.633	2.40819
323.575	2.4392
323.518	2.47022
323.461	2.50124
323.403	2.53226
323.346	2.56327
323.288	2.59429
323.231	2.6253
323.173	2.65632
323.115	2.68733
323.058	2.71834
323.029	2.73385
322.825	2.81337
322.648	2.88565
322.496	2.95107
322.366	3.00997
322.254	3.0627
322.158	3.10963
322.074	3.1511
321.999	3.18748
321.931	3.21911
321.866	3.24636
321.801	3.26957
321.733	3.28911
321.659	3.30532
321.576	3.31857
321.481	3.32921
321.371	3.33758
321.243	3.34406
321.095	3.34899
320.922	3.35272
320.722	3.35562
320.536	3.3553
320.207	3.08432
320.189	3.11891
320.172	3.15175
320.165	3.35438
320.155	3.1827
320.148	3.19741
320.141	3.21159
320.134	3.34764
320.127	3.3437
320.12	3.33895
320.116	3.3334
320.112	3.32707
320.11	3.31999
320.109	3.30362
319.994	2.48442
319.763	2.4206
319.582	2.37214
319.442	2.33657
319.33	2.31141
319.236	2.29418
319.149	2.28242
319.058	2.27365
318.952	2.26539
318.663	2.265
318.087	2.26385
317.984	2.27056
317.756	2.28399
317.743	2.30027
317.717	2.33282
317.691	2.36535
317.664	2.39787
317.637	2.43038
317.61	2.46287
317.581	2.49536
317.551	2.52784
317.521	2.56032
317.488	2.59279
317.472	2.60903
317.274	2.66399
317.079	2.71551
316.887	2.7634
316.702	2.80742
316.525	2.84737
316.358	2.88304
316.204	2.91421
316.064	2.94067
315.94	2.9622
315.835	2.9786
315.751	2.98966
315.688	2.99515
315.365	2.99692
314.817	2.99648
314.807	2.98089
314.806	2.85578
314.804	2.87146
314.8	2.96529
314.799	2.90278
314.797	2.91842
314.793	2.79298
314.766	2.76152
314.718	2.73002
314.645	2.69848
314.542	2.66692
314.403	2.63531
314.224	2.60367
314.118	2.58785
313.703	2.5869
313.481	2.58629
313.222	2.59004
313.078	2.59174
313.017	2.60132
312.962	2.61045
312.911	2.62027
312.861	2.6319
312.807	2.64646
312.747	2.66507
312.678	2.68887
312.596	2.71897
312.498	2.75649
312.38	2.80257
312.24	2.85833
312.075	2.92489
311.88	3.00337
311.724	3.01184
311.062	3.02321
310.886	3.02162
310.547	2.90371
310.547	2.92006
310.547	2.9364
310.546	2.95275
310.544	2.9691
310.543	2.80563
310.541	2.78928
310.54	2.77293
310.536	3.01814
310.437	2.76559
310.208	2.75061
309.935	2.75062
309.391	2.75066
309.358	2.75185
309.298	2.75453
309.242	2.75851
309.183	2.76495
309.118	2.77495
309.041	2.78966
308.948	2.81019
308.834	2.83768
308.693	2.87325
308.521	2.91804
308.314	2.97316
308.066	3.03975
307.774	3.11893
307.609	3.1636
307.226	3.19993
307.021	3.21792
306.753	3.21985
306.609	3.22082
305.797	3.19934
305.337	3.17277
305.324	3.00346
305.281	2.98658
305.212	3.15793
305.189	2.97028
305.143	3.14225
305.118	3.12587
304.814	2.93997
304.591	2.93999
304.12	2.94002
304.097	2.94125
304.032	2.948
303.941	2.96009
303.827	2.97713
303.69	2.99868
303.534	3.02432
303.359	3.05364
303.167	3.08622
302.96	3.12164
302.74	3.15947
302.507	3.19931
302.265	3.24072
302.014	3.2833
301.756	3.32662
301.493	3.37025
301.226	3.4138
300.957	3.45682
300.605	3.49921
300.015	3.57024
299.56	3.62491
299.217	3.6656
298.965	3.6947
298.782	3.71458
298.646	3.72763
298.536	3.73622
298.431	3.74273
298.374	3.74595
298.185	3.75043
298.078	3.75267
297.522	3.75271
297.232	3.75273
297.061	3.7427
296.963	3.7011
296.901	3.65697
295.147	3.66641
294.563	3.68236
293.081	3.69737
292.082	3.69978
291.353	3.68834
290.979	3.68262
290.028	3.6881
289.613	3.69453
289.308	3.70994
289.042	3.72488
288.737	3.74468
288.317	3.77468
287.705	3.82022
286.826	3.88662
286.351	3.90671
284.397	3.92416
283.849	3.91191
283.214	3.88178
282.771	3.848
282.022	3.81515
281.009	3.80165
278.728	3.79147
278.343	3.7989
277.027	3.83094
275.54	3.86612
274.841	3.86526
273.668	3.85318
273.431	3.8402
272.976	3.81056
272.467	3.77835
271.81	3.74635
270.917	3.71737
269.701	3.69418
268.945	3.68564
266.137	3.68588
264.755	3.686
263.738	3.66324
262.973	3.63677
262.368	3.6078
261.84	3.57755
261.302	3.54724
260.671	3.51809
259.865	3.49132
258.806	3.46815
257.37	3.46067
256.302	3.45242
255.818	3.44094
255.008	3.41594
254.356	3.38878
253.802	3.36009
253.285	3.33051
252.748	3.30068
252.133	3.27124
251.382	3.24283
250.443	3.21608
250.264	3.21481
