Uv/Vis Spectrum: alpha,alpha,7-trimethylfuro[2,3-c]pyridine-2-methanol
Formula: C11H13NO2
CAS: 56914-80-8
Melting point: 78-78.5
Instrument: Specord UV-Vis
Origin: INSTITUTE OF ENERGY PROBLEMS OF CHEMICAL PHYSICS, RAS
Wavelength (nm)	Logarithm epsilon
202.245	3.478
202.385	3.484
202.385	3.576
202.424	3.483
202.526	3.59
202.564	3.596
203.564	3.932
204.564	4.087
204.64	4.089
205.64	4.166
206.64	4.216
207.64	4.246
208.64	4.26
209.64	4.259
209.75	4.259
210.75	4.233
211.75	4.177
212.75	4.1
213.75	4.009
214.75	3.911
215.75	3.815
215.819	3.808
216.819	3.728
217.819	3.637
218.819	3.541
219.819	3.445
220.819	3.357
221.819	3.291
222.819	3.257
223.819	3.26
224.819	3.295
225.819	3.349
226.819	3.412
227.795	3.479
228.795	3.536
229.795	3.595
230.795	3.653
231.795	3.707
232.795	3.759
233.795	3.807
234.795	3.85
235.795	3.89
236.795	3.926
237.795	3.959
238.795	3.988
239.795	4.013
239.932	4.017
240.932	4.036
241.932	4.052
242.932	4.064
243.932	4.073
244.932	4.08
245.932	4.085
246.932	4.087
247.932	4.088
248.932	4.086
249.932	4.083
250.932	4.078
251.932	4.071
252.932	4.063
253.932	4.053
254.932	4.041
255.932	4.026
256.932	4.01
257.932	3.992
258.932	3.971
259.932	3.948
260.932	3.922
261.011	3.918
262.011	3.89
263.011	3.86
264.011	3.829
265.011	3.802
266.011	3.779
267.011	3.763
268.011	3.755
269.011	3.752
270.011	3.752
271.011	3.75
272.011	3.74
272.988	3.711
273.988	3.645
274.988	3.597
275.988	3.568
276.988	3.555
277.988	3.551
278.988	3.547
279.988	3.534
280.988	3.506
281.93	3.452
282.93	3.414
283.93	3.373
284.93	3.33
285.93	3.287
286.93	3.243
287.93	3.201
288.93	3.161
289.93	3.125
290.93	3.091
291.93	3.059
292.93	3.029
293.93	3
294.93	2.969
295.93	2.934
296.93	2.894
297.93	2.847
298.93	2.792
299.93	2.73
300.93	2.666
301.93	2.614
302.93	2.598
