Uv/Vis Spectrum: 5-Methyl-1,4-naphthalenedione
Formula: C11H8O2
CAS: 571-63-1
Melting point: 121-123
Instrument: Cary 14
Origin: INSTITUTE OF ENERGY PROBLEMS OF CHEMICAL PHYSICS, RAS
Wavelength (nm)	Logarithm epsilon
265.37	3.566
265.896	3.506
266.37	3.419
267.37	3.288
268.37	3.172
269.37	3.071
270.37	2.986
271.37	2.917
271.854	2.889
272.73	2.855
273.444	2.827
274.444	2.802
275.444	2.779
276.444	2.761
277.444	2.746
278.444	2.736
279.444	2.729
280.444	2.726
281.444	2.726
282.444	2.73
283.444	2.737
284.444	2.748
285.444	2.76
286.444	2.776
287.444	2.793
288.444	2.811
289.444	2.831
290.444	2.851
291.444	2.872
292.444	2.893
293.444	2.913
294.444	2.933
295.444	2.951
296.444	2.969
297.444	2.985
298.59	3
299.59	3.013
300.59	3.026
301.59	3.04
302.59	3.053
303.59	3.067
304.59	3.081
305.59	3.095
306.59	3.11
307.59	3.124
308.59	3.138
309.59	3.152
310.59	3.167
311.59	3.181
312.59	3.195
313.59	3.209
314.59	3.223
315.59	3.237
316.59	3.25
317.59	3.264
318.59	3.277
319.59	3.29
320.59	3.303
321.59	3.315
322.59	3.328
323.59	3.34
324.59	3.352
325.59	3.363
326.59	3.375
327.59	3.386
328.59	3.397
329.59	3.407
330.59	3.417
331.59	3.427
332.59	3.436
333.59	3.445
334.59	3.453
335.59	3.462
336.59	3.469
337.59	3.477
338.59	3.483
339.59	3.49
340.59	3.495
341.59	3.501
342.59	3.505
343.59	3.51
344.59	3.513
345.59	3.516
346.59	3.519
347.59	3.521
348.59	3.522
349.59	3.522
350.59	3.522
351.59	3.521
352.59	3.519
353.59	3.517
354.59	3.514
355.59	3.51
356.59	3.505
357.59	3.499
358.59	3.492
359.59	3.485
360.59	3.476
361.59	3.467
362.59	3.456
363.59	3.445
364.59	3.433
365.59	3.419
366.59	3.405
367.59	3.389
368.59	3.373
369.59	3.355
370.59	3.336
371.59	3.316
372.59	3.295
373.59	3.273
374.59	3.249
375.59	3.225
376.59	3.199
377.59	3.172
378.59	3.144
379.59	3.114
380.59	3.084
381.59	3.052
382.59	3.02
383.59	2.986
384.59	2.951
385.59	2.915
386.59	2.878
387.59	2.839
388.59	2.8
389.59	2.76
390.59	2.719
391.59	2.677
392.59	2.635
