Uv/Vis Spectrum: Naphthalene, 1,5-dimethyl-
Formula: C12H12
CAS: 571-61-9
Melting point: 82
Boiling point: 265
Instrument: n.i.g.
Origin: INSTITUTE OF ENERGY PROBLEMS OF CHEMICAL PHYSICS, RAS
Wavelength (nm)	Logarithm epsilon
205.071	3.58298
205.3	3.6002
205.507	3.61606
205.704	3.63163
205.901	3.64797
206.109	3.66617
206.339	3.68728
206.601	3.71239
206.908	3.74256
207.268	3.77886
207.695	3.82237
208.197	3.87415
208.787	3.93528
209.475	4.00683
210.271	4.08987
211.188	4.18547
211.188	4.18547
211.642	4.22427
212.101	4.263
212.566	4.30166
213.037	4.34026
213.515	4.3788
214	4.41725
214.493	4.45564
214.995	4.49394
215.506	4.53217
216.028	4.57031
216.559	4.60836
217.102	4.64633
217.657	4.6842
218.224	4.72198
218.803	4.75966
219.397	4.79724
220.004	4.83472
220.626	4.87209
221.264	4.90935
221.917	4.9465
222.587	4.98354
223.274	5.02046
223.98	5.05725
224.703	5.09393
224.703	5.09393
225.953	5.11275
227.093	5.11736
228.275	5.09304
228.275	5.09304
228.991	5.04409
229.485	4.999
230.182	4.91911
230.182	4.91911
230.323	4.88118
230.47	4.84324
230.621	4.80527
230.777	4.76728
230.938	4.72928
231.103	4.69125
231.272	4.65321
231.445	4.61515
231.621	4.57708
231.801	4.539
231.984	4.5009
232.171	4.46279
232.36	4.42466
232.553	4.38653
232.747	4.34838
232.944	4.31023
233.143	4.27207
233.345	4.2339
233.547	4.19572
233.752	4.15754
233.958	4.11935
234.165	4.08116
234.373	4.04297
234.581	4.00477
234.791	3.96658
235	3.92838
235.21	3.89018
235.42	3.85198
235.63	3.81378
235.839	3.77559
236.048	3.7374
236.256	3.69922
236.464	3.66104
236.669	3.62287
236.874	3.5847
237.077	3.54654
237.279	3.50839
237.478	3.47025
237.675	3.43212
237.87	3.394
237.87	3.394
238.565	3.35637
239.3	3.3163
240.187	3.27715
241.336	3.24226
242.858	3.21497
244.863	3.19865
245.382	3.19852
247.382	3.22264
248.982	3.25108
250.327	3.28334
251.565	3.3189
252.84	3.35728
252.84	3.35728
254.36	3.38986
255.776	3.42254
257.108	3.45549
258.373	3.48886
259.591	3.52282
260.781	3.55752
261.96	3.59312
263.148	3.6298
264.363	3.66771
264.363	3.66771
266.214	3.69609
268.111	3.72119
270.122	3.74505
270.122	3.74505
271.665	3.79149
273.012	3.83798
274.272	3.88693
274.272	3.88693
275.804	3.91559
277.092	3.92273
278.366	3.91634
279.855	3.90437
281.789	3.89482
281.789	3.89482
281.862	3.90012
281.949	3.90514
282.033	3.89476
282.042	3.91003
282.53	3.90183
282.998	3.91501
283.836	3.94561
284.12	3.96081
285.292	3.97965
286.183	4.00427
287.82	4.01851
287.82	4.01851
288.57	3.99457
289.527	3.95854
290.781	3.91145
292.42	3.8543
292.42	3.8543
294.247	3.836
295.891	3.83982
297.423	3.85234
298.909	3.86016
300.418	3.84985
300.418	3.84985
300.944	3.81255
301.41	3.77501
301.827	3.73726
302.205	3.69933
302.555	3.66124
302.888	3.62302
303.214	3.58471
303.544	3.54631
303.888	3.50786
304.257	3.4694
304.661	3.43094
305.111	3.39251
305.618	3.35413
306.191	3.31584
306.191	3.31584
307.528	3.25969
308.139	3.23641
308.548	3.22609
308.548	3.22609
308.765	3.19188
309.023	3.14928
309.344	3.10177
309.75	3.05287
310.262	3.00607
310.902	2.96486
311.693	2.93276
311.693	2.93276
313.943	2.90943
315.256	2.88079
316.162	2.84206
317.191	2.78847
317.191	2.78847
317.474	2.7884
317.772	2.78832
318.076	2.78825
318.076	2.78825
318.202	2.79353
318.327	2.79854
318.452	2.80342
318.452	2.80342
318.735	2.80272
319.032	2.80187
319.336	2.80076
319.336	2.80076
319.871	2.7431
320.284	2.708
320.931	2.66539
320.931	2.66539
321.265	2.66284
321.599	2.66015
321.933	2.6572
321.933	2.6572
322.097	2.6608
322.275	2.66426
322.459	2.66745
322.459	2.66745
322.742	2.66597
323.038	2.66423
323.341	2.66234
323.341	2.66234
323.838	2.62259
324.325	2.58269
324.801	2.54263
325.263	2.50241
325.712	2.46202
326.145	2.42146
326.562	2.38073
326.96	2.33982
327.339	2.29873
327.698	2.25745
328.035	2.21599
328.349	2.17433
328.349	2.17433
329.616	2.0701
330.608	1.99065
331.36	1.93228
331.906	1.89128
332.28	1.86394
332.516	1.84658
332.649	1.83548
332.713	1.82695
