Uv/Vis Spectrum: Naphthalene, 1,4-dimethyl-
Formula: C12H12
CAS: 571-58-4
Melting point: 7.6
Boiling point: 268
Instrument: Cary PMS 11
Origin: INSTITUTE OF ENERGY PROBLEMS OF CHEMICAL PHYSICS, RAS
Wavelength (nm)	Logarithm epsilon
208.227	5.35952
208.962	5.38987
210.135	5.41547
211.575	5.43732
213.109	5.45642
214.567	5.47376
214.567	5.47376
215.967	5.5074
217.104	5.53464
218.062	5.5574
218.925	5.57763
219.778	5.59724
220.702	5.61816
221.784	5.64233
223.106	5.67168
224.752	5.70812
224.752	5.70812
226.058	5.72732
227.173	5.73712
228.122	5.7386
228.93	5.73281
229.622	5.72082
230.223	5.7037
230.758	5.68251
231.252	5.65831
231.73	5.63218
232.216	5.60517
232.216	5.60517
232.497	5.59251
232.789	5.56861
233.34	5.54511
233.34	5.54511
233.57	5.51529
233.794	5.4855
234.012	5.45573
234.225	5.42599
234.432	5.39627
234.633	5.36657
234.828	5.33688
235.018	5.30721
235.203	5.27756
235.382	5.24791
235.555	5.21827
235.724	5.18863
235.886	5.159
236.044	5.12937
236.196	5.09974
236.343	5.0701
236.485	5.04046
236.622	5.01081
236.754	4.98115
236.88	4.95148
237.002	4.92178
237.119	4.89208
237.231	4.86235
237.338	4.8326
237.44	4.80283
237.537	4.77302
237.63	4.7432
237.718	4.71333
237.802	4.68344
237.881	4.65351
237.955	4.62354
238.025	4.59352
238.091	4.56347
238.152	4.53337
238.209	4.50322
238.261	4.47303
238.309	4.44278
238.353	4.41248
238.393	4.38212
238.429	4.3517
238.461	4.32122
238.488	4.29067
238.488	4.29067
238.578	4.26403
238.578	4.26403
238.591	4.24837
238.632	4.22699
238.669	4.28704
238.707	4.20087
238.822	4.17101
238.836	4.26851
238.855	4.28331
238.958	4.27249
238.981	4.13841
239.051	4.27938
239.051	4.27938
239.189	4.10405
239.453	4.06893
239.777	4.03405
240.166	4.00039
240.627	3.96894
241.163	3.94071
241.781	3.91668
242.486	3.89785
243.283	3.88521
244.177	3.87975
244.446	3.88156
245.329	3.88982
246.251	3.90348
247.203	3.92185
248.172	3.94425
249.148	3.96998
250.121	3.99835
251.078	4.02867
252.01	4.06025
252.904	4.0924
253.751	4.12443
254.538	4.15565
255.256	4.18537
255.893	4.21289
256.437	4.23754
256.879	4.25861
256.879	4.25861
258.176	4.29069
258.894	4.33521
259.397	4.37692
259.397	4.37692
260.457	4.41059
261.308	4.43361
262.051	4.44887
262.783	4.45927
263.606	4.4677
264.617	4.47706
265.916	4.49024
267.603	4.51013
267.603	4.51013
268.802	4.53502
269.958	4.56111
271.076	4.58816
272.161	4.61591
273.219	4.64413
274.255	4.67256
275.274	4.70098
276.281	4.72914
276.281	4.72914
277.873	4.74643
279.314	4.74917
281.34	4.7463
281.34	4.7463
283.019	4.76208
284.979	4.78282
286.8	4.80211
288.062	4.81358
288.062	4.81358
289.567	4.80171
291.04	4.78256
292.474	4.75849
293.859	4.73186
295.187	4.70504
296.448	4.68037
296.448	4.68037
298.286	4.66835
299.467	4.65452
300.253	4.6357
300.906	4.60865
301.686	4.57019
301.686	4.57019
302.677	4.50667
303.478	4.45619
304.117	4.41664
304.621	4.38591
305.017	4.36189
305.333	4.34247
305.596	4.32553
305.833	4.30897
306.07	4.29067
306.632	4.26042
307.092	4.2296
307.551	4.19878
308.011	4.16796
308.471	4.13714
308.93	4.10632
309.39	4.0755
309.851	4.04468
310.311	4.01386
310.772	3.98305
311.233	3.95223
311.694	3.92141
312.156	3.89059
312.618	3.85977
313.08	3.82895
313.543	3.79813
314.007	3.76731
314.007	3.76731
315.023	3.76922
315.995	3.77233
316.637	3.77273
316.637	3.77273
316.819	3.75935
316.983	3.74668
317.159	3.73177
317.379	3.71166
317.675	3.68337
318.079	3.64395
318.621	3.59043
319.335	3.51986
319.335	3.51986
319.987	3.51803
320.639	3.51611
321.291	3.51398
321.291	3.51398
321.41	3.50586
321.539	3.49773
321.673	3.4896
321.673	3.4896
321.839	3.45826
322.006	3.42692
322.172	3.39558
322.339	3.36424
322.506	3.33289
322.673	3.30154
322.84	3.27019
323.007	3.23882
323.175	3.20746
323.343	3.17608
323.512	3.1447
323.681	3.11331
323.85	3.08191
324.02	3.0505
