Uv/Vis Spectrum: N-[(2-hydroxyphenyl)methylene]benzenesulfenamide
Formula: C13H11NOS
CAS: 57272-48-7
Melting point: 82-83
Instrument: Perkin-Elmer 402
Origin: INSTITUTE OF ENERGY PROBLEMS OF CHEMICAL PHYSICS, RAS
Wavelength (nm)	Logarithm epsilon
244.215	3.933
245.215	3.946
246.215	3.957
247.215	3.967
248.215	3.977
249.215	3.986
250.215	3.995
251.215	4.005
252.215	4.014
253.215	4.024
254.215	4.035
255.215	4.046
256.215	4.057
257.215	4.069
258.215	4.081
259.215	4.094
260.215	4.106
261.215	4.118
262.215	4.13
263.215	4.141
264.215	4.152
265.215	4.161
266.215	4.17
267.215	4.177
268.215	4.182
269.215	4.186
270.215	4.188
271.215	4.188
272.215	4.186
273.215	4.183
274.215	4.177
275.215	4.17
276.215	4.161
277.215	4.151
278.215	4.139
279.215	4.126
280.215	4.113
281.215	4.099
282.215	4.085
283.215	4.07
284.215	4.056
285.215	4.041
286.215	4.027
287.215	4.012
288.215	3.996
289.215	3.978
290.119	3.964
291.119	3.943
292.119	3.926
293.119	3.904
294.119	3.88
295.119	3.856
296.119	3.833
297.119	3.813
298.119	3.796
299.119	3.782
300.119	3.771
301.119	3.763
302.119	3.758
303.119	3.755
304.119	3.755
305.119	3.756
306.119	3.758
307.119	3.762
308.119	3.766
309.119	3.772
310.119	3.779
311.119	3.787
312.119	3.795
313.119	3.805
314.119	3.816
315.119	3.827
316.119	3.838
317.119	3.848
318.119	3.855
319.357	3.873
320.357	3.883
321.357	3.893
322.357	3.902
323.357	3.911
324.357	3.919
325.357	3.928
326.357	3.935
327.357	3.943
328.357	3.95
329.357	3.956
330.357	3.962
331.357	3.966
332.357	3.97
333.357	3.973
334.357	3.974
335.357	3.973
336.357	3.971
337.357	3.968
338.357	3.962
339.357	3.955
340.357	3.945
341.357	3.933
342.357	3.919
343.357	3.903
344.357	3.884
345.357	3.863
346.357	3.84
347.357	3.814
348.357	3.786
349.357	3.755
350.357	3.723
351.357	3.688
352.357	3.65
353.357	3.611
354.357	3.569
355.357	3.525
356.357	3.479
357.357	3.431
358.357	3.38
359.357	3.327
360.357	3.271
361.357	3.213
362.357	3.152
363.357	3.087
364.357	3.019
365.357	2.946
366.357	2.869
367.357	2.787
368.357	2.698
369.357	2.603
370.357	2.5
371.357	2.388
372.357	2.265
373.357	2.131
374.357	1.984
375.357	1.821
