Uv/Vis Spectrum: (E)-2-[(2-chloroethyl)thio]propane
Formula: C5H9ClS
CAS: 57295-88-2
Instrument: Unicam SP 700
Origin: INSTITUTE OF ENERGY PROBLEMS OF CHEMICAL PHYSICS, RAS
Wavelength (nm)	Logarithm epsilon
202.5	3.719
203.5	3.705
204.5	3.689
205.5	3.671
206.5	3.652
207.5	3.633
208.5	3.614
209.5	3.596
210.5	3.577
211.5	3.559
212.5	3.541
213.5	3.522
214.5	3.503
215.5	3.484
216.5	3.464
217.5	3.444
218.5	3.424
219.5	3.405
220.5	3.387
221.5	3.371
222.5	3.357
223.5	3.347
224.5	3.341
225.5	3.339
226.5	3.342
227.363	3.349
228.363	3.357
229.363	3.364
230.363	3.369
231.363	3.375
232.363	3.382
233.363	3.391
234.363	3.401
235.363	3.413
236.363	3.426
237.363	3.44
238.363	3.454
239.363	3.469
240.363	3.483
241.363	3.496
242.363	3.508
243.363	3.52
244.363	3.53
245.363	3.539
246.363	3.548
247.363	3.556
248.363	3.564
249.363	3.572
250.363	3.581
251.363	3.591
252.363	3.602
253.363	3.614
254.286	3.63
255.286	3.635
256.286	3.648
257.286	3.663
258.286	3.68
259.286	3.696
260.286	3.711
261.286	3.724
262.286	3.736
263.286	3.746
264.286	3.755
265.286	3.762
266.286	3.766
267.286	3.767
268.286	3.761
269.286	3.746
270.286	3.718
271.286	3.671
272.28	3.591
273.28	3.497
274.28	3.409
275.28	3.327
276.28	3.25
277.28	3.178
278.28	3.11
279.28	3.046
280.28	2.985
281.28	2.926
282.28	2.868
283.28	2.812
284.28	2.756
285.28	2.701
286.28	2.644
287.28	2.587
288.28	2.528
289.28	2.467
290	2.42
