Uv/Vis Spectrum: (E)-2-[(2-chloroethenyl)thio]-2-metthylpropane
Formula: C6H11ClS
CAS: 57295-89-3
Instrument: Unicam SP 700
Origin: INSTITUTE OF ENERGY PROBLEMS OF CHEMICAL PHYSICS, RAS
Wavelength (nm)	Logarithm epsilon
204.27	3.993
205.27	3.949
206.27	3.913
207.27	3.885
208.27	3.863
209.27	3.845
210.27	3.831
211.27	3.819
212.27	3.809
213.27	3.799
214.27	3.79
215.27	3.78
216.27	3.769
217.27	3.756
218.27	3.742
219.27	3.727
220.27	3.709
221.27	3.69
222.27	3.669
223.27	3.647
224.27	3.625
225.27	3.601
226.27	3.578
227.27	3.556
228.27	3.535
229.27	3.516
230.27	3.5
231.088	3.489
232.088	3.483
233.088	3.477
234.088	3.472
235.088	3.467
236.088	3.464
237.088	3.461
238.088	3.46
239.088	3.459
240.088	3.459
241.088	3.461
242.088	3.464
243.088	3.467
244.088	3.472
245.088	3.477
246.088	3.483
247.088	3.49
248.088	3.497
249.088	3.505
250.088	3.513
251.088	3.522
252.088	3.531
252.956	3.54
253.956	3.551
254.956	3.561
255.956	3.571
256.956	3.582
257.956	3.593
258.956	3.606
259.956	3.619
260.956	3.633
261.956	3.648
262.956	3.663
263.956	3.678
264.956	3.691
265.956	3.704
266.956	3.714
267.956	3.722
268.956	3.726
269.956	3.726
270.956	3.723
271.956	3.715
272.956	3.703
273.035	3.703
274.035	3.68
275.035	3.656
276.035	3.616
277.035	3.557
277.057	3.556
278.057	3.48
279.057	3.406
280.057	3.334
281.057	3.263
282.057	3.194
283.057	3.125
284.057	3.057
285.057	2.989
286.057	2.921
287.057	2.853
288.057	2.784
289.057	2.713
290.057	2.641
291.289	2.555
