Uv/Vis Spectrum: N-[(2-hydroxyphenyl)methylene]benzenesulfinamide
Formula: C13H11NO2S
CAS: 57272-59-0
Melting point: 92-93
Instrument: Perkin-Elmer 402
Origin: INSTITUTE OF ENERGY PROBLEMS OF CHEMICAL PHYSICS, RAS
Wavelength (nm)	Logarithm epsilon
250.05	3.969
251.048	3.967
252.048	3.951
253.048	3.937
254.048	3.922
255.048	3.908
256.048	3.894
257.048	3.881
258.048	3.869
259.048	3.857
260.048	3.846
261.048	3.836
262.048	3.827
263.048	3.819
264.048	3.812
265.048	3.806
266.048	3.801
267.048	3.796
268.048	3.793
269.048	3.79
270.048	3.789
271.048	3.788
272.048	3.787
273.048	3.788
274.048	3.789
275.048	3.791
276.048	3.793
277.048	3.796
278.048	3.799
279.048	3.803
280.048	3.807
281.048	3.811
282.048	3.815
283.048	3.82
284.048	3.825
285.048	3.83
286.048	3.835
287.048	3.84
288.048	3.845
289.048	3.85
290.048	3.855
291.048	3.86
292.048	3.865
293.048	3.87
294.048	3.874
295.048	3.879
296.048	3.883
297.048	3.887
298.048	3.89
299.048	3.894
300.048	3.898
301.048	3.901
302.048	3.904
303.048	3.907
304.048	3.91
305.048	3.913
306.048	3.916
307.048	3.919
308.048	3.922
309.048	3.924
310.048	3.927
311.048	3.93
312.048	3.933
313.048	3.937
314.048	3.94
315.048	3.944
316.048	3.948
317.048	3.952
318.048	3.956
319.048	3.961
320.048	3.966
321.048	3.971
322.048	3.977
323.048	3.983
324.048	3.989
325.048	3.996
326.048	4.002
327.048	4.009
328.048	4.016
329.048	4.024
330.048	4.031
331.048	4.038
332.048	4.045
333.048	4.052
334.048	4.058
335.048	4.064
336.048	4.069
337.048	4.073
338.048	4.076
339.953	4.078
340.953	4.067
341.953	4.06
342.953	4.055
343.953	4.051
344.953	4.047
345.953	4.043
346.953	4.037
347.953	4.029
348.953	4.019
349.953	4.008
350.953	3.996
351.953	3.982
352.953	3.967
353.953	3.952
354.953	3.936
355.953	3.92
356.953	3.905
357.953	3.89
358.953	3.876
359.953	3.863
360.953	3.851
361.953	3.839
362.953	3.827
363.953	3.816
364.953	3.804
365.953	3.792
366.953	3.778
367.953	3.763
368.953	3.745
369.953	3.724
370.953	3.7
371.953	3.671
372.953	3.639
373.953	3.601
374.953	3.558
375.953	3.51
376.953	3.457
377.953	3.4
378.953	3.34
379.953	3.277
380.953	3.214
381.953	3.153
382.038	3.163
383.038	3.094
384.038	3.031
385.038	2.972
386.038	2.919
387.038	2.869
388.038	2.822
389.038	2.777
390.038	2.734
391.038	2.691
392.038	2.647
393.038	2.602
394.038	2.554
395.038	2.503
396.038	2.447
397.038	2.385
398.038	2.315
399.038	2.238
400.038	2.151
401.038	2.053
402.038	1.943
403.038	1.82
404.038	1.681
405.038	1.527
406.038	1.354
407.038	1.162
408.038	0.949
408.84	0.8
