Uv/Vis Spectrum: 1,3-Dimethylisophosphinoline
Formula: C11H11P
CAS: 57328-61-7
Boiling point: 70-0.01 mm
Instrument: Perkin-Elmer 137
Origin: INSTITUTE OF ENERGY PROBLEMS OF CHEMICAL PHYSICS, RAS
Wavelength (nm)	Logarithm epsilon
234.84	4.307
235.165	4.309
235.49	4.31
235.815	4.313
236.14	4.316
236.465	4.319
236.79	4.323
237.115	4.327
237.44	4.331
237.765	4.335
238.09	4.339
238.415	4.343
238.74	4.348
239.065	4.352
239.39	4.356
239.715	4.36
240.04	4.364
240.365	4.368
240.69	4.372
241.015	4.375
241.34	4.379
241.665	4.382
241.99	4.385
242.315	4.389
242.64	4.392
242.965	4.395
243.29	4.398
243.615	4.4
243.94	4.403
244.265	4.406
244.59	4.409
244.915	4.411
245.24	4.414
245.565	4.417
245.89	4.419
246.215	4.422
246.54	4.425
246.865	4.427
247.19	4.43
247.515	4.433
248.061	4.438
248.386	4.443
248.711	4.448
249.036	4.453
249.361	4.457
249.686	4.462
250.011	4.465
250.336	4.469
250.661	4.471
250.986	4.473
251.311	4.474
251.636	4.475
251.961	4.474
252.286	4.473
252.611	4.47
252.936	4.467
253.261	4.463
253.586	4.458
253.911	4.451
254.236	4.444
254.561	4.436
254.886	4.428
255.211	4.418
255.536	4.407
255.861	4.396
256.186	4.384
256.511	4.372
256.836	4.359
257.161	4.346
257.486	4.332
257.811	4.318
258.136	4.303
258.461	4.289
258.786	4.275
259.111	4.261
259.436	4.248
259.761	4.235
260.086	4.222
260.411	4.21
260.736	4.2
261.061	4.19
261.386	4.181
261.711	4.175
262.036	4.169
262.361	4.166
262.661	4.163
262.986	4.158
263.311	4.151
263.636	4.143
263.961	4.133
264.286	4.123
264.611	4.112
264.936	4.1
265.261	4.087
265.586	4.074
265.911	4.06
266.236	4.046
266.561	4.032
266.886	4.018
267.211	4.004
267.536	3.99
267.861	3.976
268.186	3.962
268.511	3.949
268.836	3.936
269.161	3.923
269.486	3.911
269.811	3.9
270.136	3.889
270.461	3.879
270.786	3.869
271.111	3.86
271.436	3.852
271.761	3.844
272.086	3.837
272.411	3.831
272.736	3.826
273.061	3.821
273.386	3.817
273.711	3.813
274.036	3.81
274.361	3.808
274.686	3.806
275.011	3.805
275.336	3.804
275.661	3.804
275.986	3.803
276.311	3.804
276.636	3.804
276.961	3.804
277.286	3.805
277.611	3.805
278.1	3.806
278.425	3.807
278.75	3.807
279.075	3.808
279.4	3.809
279.725	3.81
280.05	3.811
280.375	3.812
280.7	3.812
281.025	3.813
281.35	3.814
281.675	3.815
282	3.816
282.325	3.817
282.65	3.818
282.975	3.819
283.3	3.82
283.625	3.821
283.95	3.822
284.275	3.823
284.6	3.824
284.925	3.825
285.25	3.826
285.575	3.827
285.9	3.828
286.225	3.829
286.55	3.83
286.875	3.831
287.2	3.832
287.525	3.833
287.85	3.834
288.175	3.835
288.5	3.836
288.825	3.838
289.15	3.839
289.475	3.84
289.8	3.841
290.125	3.842
290.45	3.843
290.775	3.844
291.1	3.845
291.425	3.846
291.75	3.848
292.075	3.849
292.4	3.85
292.725	3.851
293.05	3.852
293.375	3.853
293.7	3.854
294.025	3.855
294.35	3.856
294.675	3.857
295	3.858
295.325	3.858
295.65	3.859
295.975	3.86
296.3	3.861
296.625	3.862
296.95	3.862
297.275	3.863
297.6	3.864
297.925	3.864
298.25	3.865
298.575	3.866
298.9	3.866
299.225	3.867
299.55	3.867
299.875	3.868
300.2	3.868
300.525	3.868
300.85	3.869
301.175	3.869
301.5	3.869
301.825	3.869
302.15	3.869
302.475	3.87
302.8	3.87
303.125	3.87
303.45	3.87
303.775	3.87
304.1	3.87
304.425	3.87
304.75	3.87
305.075	3.869
305.4	3.869
305.725	3.869
306.05	3.869
306.375	3.869
306.7	3.869
307.025	3.868
307.35	3.868
307.675	3.868
308	3.868
308.325	3.867
308.65	3.867
308.975	3.867
309.3	3.867
309.625	3.867
309.95	3.867
310.275	3.866
310.6	3.866
310.925	3.866
311.25	3.866
311.575	3.866
311.9	3.867
312.225	3.867
312.55	3.867
312.875	3.867
313.338	3.865
313.663	3.863
313.988	3.861
314.313	3.86
314.638	3.858
314.963	3.856
315.288	3.854
315.613	3.852
315.938	3.85
316.263	3.848
316.588	3.845
316.913	3.842
317.238	3.839
317.563	3.836
317.888	3.832
318.213	3.828
318.538	3.823
318.863	3.818
319.188	3.813
319.513	3.807
319.838	3.801
320.163	3.794
320.488	3.787
320.813	3.78
321.138	3.772
321.463	3.764
321.788	3.756
322.113	3.747
322.438	3.738
322.763	3.729
323.088	3.719
323.413	3.709
323.738	3.699
324.063	3.688
324.388	3.677
324.713	3.666
325.038	3.655
325.363	3.644
325.688	3.632
326.013	3.621
326.338	3.609
326.663	3.597
326.988	3.585
327.313	3.573
327.638	3.561
327.963	3.548
328.288	3.536
328.613	3.524
328.938	3.511
329.263	3.499
329.588	3.487
329.913	3.474
330.238	3.461
330.563	3.449
330.888	3.436
331.213	3.423
331.538	3.41
331.863	3.397
332.188	3.384
332.513	3.37
332.838	3.356
333.163	3.342
333.488	3.328
333.813	3.313
334.138	3.297
334.463	3.281
334.788	3.264
335.113	3.247
335.438	3.229
335.763	3.21
336.088	3.19
336.413	3.169
336.738	3.146
337.063	3.123
337.388	3.097
337.694	3.074
338.019	3.051
338.344	3.03
338.669	3.011
338.994	2.992
339.319	2.975
339.644	2.96
339.969	2.945
340.294	2.931
340.619	2.918
340.944	2.906
341.269	2.894
341.594	2.883
341.919	2.872
342.244	2.862
342.569	2.853
342.894	2.843
343.219	2.834
343.544	2.825
343.869	2.817
344.194	2.808
344.519	2.799
344.844	2.791
345.169	2.783
345.494	2.774
345.819	2.766
346.144	2.757
346.469	2.749
346.794	2.74
347.119	2.731
347.444	2.723
347.769	2.714
348.094	2.705
348.419	2.696
348.744	2.687
349.069	2.678
349.394	2.668
349.719	2.659
350.044	2.65
350.369	2.641
350.694	2.631
351.019	2.622
351.344	2.613
351.669	2.604
351.994	2.595
352.319	2.586
352.644	2.578
352.969	2.569
353.294	2.561
353.619	2.553
353.944	2.545
354.269	2.538
354.594	2.531
354.919	2.524
355.244	2.517
355.569	2.511
355.894	2.505
356.219	2.5
356.544	2.495
356.869	2.491
357.194	2.487
357.519	2.483
357.844	2.48
358.169	2.478
358.494	2.476
358.819	2.474
359.144	2.473
359.469	2.472
359.794	2.472
360.119	2.472
360.444	2.473
360.769	2.474
361.094	2.475
361.419	2.477
361.744	2.479
362.069	2.481
362.394	2.483
362.719	2.486
363.044	2.488
