Uv/Vis Spectrum: 9-Bromophenanthrene
Formula: C14H9Br
CAS: 573-17-1
Melting point: 63
Instrument: Beckman DU
Origin: INSTITUTE OF ENERGY PROBLEMS OF CHEMICAL PHYSICS, RAS
Wavelength (nm)	Logarithm epsilon
206.124	4.24441
206.276	4.24443
206.628	4.25472
206.78	4.25474
207.132	4.26504
207.284	4.26813
207.636	4.27842
207.788	4.27844
208.14	4.28873
208.292	4.28875
208.644	4.29904
208.796	4.29906
209.148	4.30935
209.804	4.31968
211.526	4.32293
212.187	4.31684
212.847	4.30973
213.204	4.30258
213.559	4.29954
214.373	4.28629
214.881	4.28223
215.237	4.27611
215.898	4.269
216.762	4.25883
217.269	4.2558
217.778	4.24867
218.285	4.24564
218.794	4.23851
219.656	4.23552
220.164	4.22839
221.179	4.22542
221.687	4.21829
222.346	4.21528
222.856	4.20507
223.211	4.201
223.365	4.19486
224.231	4.17751
224.385	4.17035
224.74	4.1673
224.894	4.15706
225.25	4.15402
225.404	4.14685
225.76	4.13971
225.914	4.13357
226.269	4.1295
226.423	4.12336
226.779	4.11929
226.932	4.11315
227.441	4.10294
227.595	4.09578
227.951	4.09274
228.105	4.08557
228.46	4.08253
228.614	4.07536
228.969	4.07232
229.123	4.06515
229.632	4.05802
230.342	4.05502
231.15	4.06536
231.352	4.06846
231.652	4.08593
231.853	4.08903
232.153	4.10958
232.354	4.1137
232.652	4.13733
232.855	4.13735
233.153	4.16097
233.355	4.1651
233.654	4.18565
233.857	4.18567
234.155	4.20929
234.357	4.21239
234.656	4.22986
234.858	4.23296
235.157	4.25351
235.359	4.25763
235.659	4.27408
235.861	4.2782
236.16	4.29875
236.362	4.29877
236.661	4.31932
236.863	4.32242
237.163	4.33989
237.365	4.34299
237.664	4.36354
238.017	4.37075
238.366	4.39131
238.518	4.3944
238.868	4.41188
239.019	4.41497
239.37	4.43245
242.686	4.54563
243.189	4.5621
243.392	4.56212
244.044	4.58681
244.196	4.58682
244.699	4.60329
246.06	4.63112
246.716	4.64145
247.424	4.6487
248.081	4.65492
248.586	4.66216
249.092	4.66529
249.749	4.67253
250.255	4.67566
250.761	4.67982
251.266	4.68602
252.126	4.69329
252.631	4.70052
253.137	4.70365
253.642	4.71089
254.147	4.71402
255.668	4.71417
256.176	4.70704
256.331	4.6968
256.691	4.67324
256.855	4.62503
257.216	4.60148
257.375	4.57071
257.735	4.55023
258.1	4.50923
258.408	4.49182
258.617	4.46825
258.925	4.45084
259.132	4.43445
259.44	4.41704
259.647	4.39962
259.954	4.38631
260.16	4.37299
260.468	4.35866
260.674	4.34535
260.981	4.33512
261.186	4.32488
261.493	4.31157
261.698	4.30134
262.005	4.29111
262.21	4.28087
262.72	4.26656
263.028	4.25325
263.385	4.24303
263.743	4.22973
264.049	4.22258
264.407	4.20928
265.07	4.1919
265.274	4.18474
265.58	4.17862
265.784	4.17146
266.447	4.15409
266.805	4.14078
267.111	4.13363
267.315	4.1275
267.621	4.12035
267.826	4.11319
268.488	4.09684
268.847	4.08251
269.509	4.06924
269.867	4.05594
270.529	4.04165
270.887	4.02835
271.193	4.01812
271.551	4.00482
272.061	3.99461
272.216	3.98026
272.572	3.97414
272.727	3.9639
273.237	3.94959
273.595	3.93629
275.116	3.93336
275.468	3.94366
275.62	3.94367
275.973	3.95397
276.277	3.954
277.491	3.96028
278.507	3.95012
278.661	3.94398
279.017	3.93991
279.324	3.92661
281.056	3.88883
281.21	3.88268
281.566	3.87554
281.871	3.87249
282.379	3.86536
284.404	3.87275
284.607	3.87277
285.261	3.89335
285.412	3.89645
285.762	3.917
285.913	3.92009
286.262	3.94475
286.414	3.94477
286.763	3.96532
286.914	3.96841
287.923	3.98903
288.937	3.98606
289.142	3.9789
289.448	3.96867
289.654	3.95535
289.961	3.94513
290.168	3.92771
290.473	3.92056
290.68	3.90416
290.987	3.89393
291.194	3.87651
291.5	3.86629
291.706	3.85297
292.013	3.84274
292.22	3.82532
292.526	3.81509
293.897	3.80497
294.399	3.82554
294.55	3.82864
294.899	3.85329
295.051	3.85331
295.399	3.87694
295.551	3.87696
295.899	3.90469
296.051	3.90471
296.399	3.93141
296.551	3.93143
296.899	3.95917
297.051	3.95918
297.399	3.98692
297.551	3.98693
297.9	4.01056
298.052	4.01058
298.401	4.03421
298.553	4.03423
298.903	4.05478
299.054	4.0589
299.407	4.06509
300.268	4.06518
300.778	4.05189
301.085	4.04166
301.296	4.00783
301.605	3.98734
302.13	3.91558
302.343	3.87046
302.653	3.8469
302.867	3.8028
303.178	3.77514
303.394	3.72078
303.705	3.69312
303.919	3.64492
304.231	3.61417
304.443	3.57726
304.756	3.53933
304.97	3.49524
305.282	3.46039
305.496	3.4163
305.808	3.38555
306.023	3.33428
306.334	3.30661
306.55	3.25226
306.861	3.22151
307.077	3.17024
307.388	3.14257
307.604	3.08822
307.916	3.0544
308.132	3.00312
308.445	2.9652
308.66	2.91392
308.972	2.88318
309.186	2.83908
309.495	2.8186
309.706	2.78374
310.016	2.76017
310.227	2.72634
310.535	2.70893
310.746	2.67509
311.055	2.65461
311.264	2.63001
311.575	2.60336
311.784	2.57876
312.093	2.55828
312.302	2.53162
312.61	2.51421
312.819	2.49064
313.126	2.47631
313.333	2.45991
313.641	2.44558
313.846	2.43534
314.151	2.4323
314.66	2.42209
317.905	2.41524
318.564	2.41222
318.921	2.40508
319.226	2.39895
319.431	2.38872
319.738	2.37849
319.947	2.35389
320.256	2.3334
320.465	2.30675
320.776	2.27908
320.984	2.25858
321.29	2.25143
321.494	2.2453
323.015	2.24135
323.519	2.25166
323.671	2.25167
324.17	2.2825
324.322	2.28252
324.672	2.30307
324.824	2.30308
325.174	2.32364
325.325	2.32776
325.829	2.33807
326.843	2.33407
327.049	2.32075
327.356	2.31052
327.562	2.29721
327.869	2.28288
328.075	2.26956
328.382	2.25933
328.587	2.24909
329.097	2.23581
329.909	2.23179
330.263	2.23592
330.612	2.25648
330.764	2.25957
331.108	2.30064
331.26	2.30066
331.605	2.34173
331.756	2.34482
332.103	2.37564
332.254	2.37975
332.602	2.40646
332.904	2.41368
333.41	2.41681
334.121	2.41072
334.277	2.39637
334.636	2.38
334.795	2.34924
335.154	2.33183
