Uv/Vis Spectrum: 2,6 - Dinitrophenol
Formula: C6H4N2O5
CAS: 573-56-8
Melting point: 63.5
Instrument: Unicam SP 700
Origin: INSTITUTE OF ENERGY PROBLEMS OF CHEMICAL PHYSICS, RAS
Wavelength (nm)	Logarithm epsilon
406.477	2.31053
405.854	2.34225
405.215	2.37396
404.56	2.40568
403.89	2.43741
403.207	2.46913
402.509	2.50085
401.799	2.53256
401.077	2.56427
400.344	2.59598
399.6	2.62767
398.847	2.65935
398.084	2.69102
397.313	2.72268
396.535	2.75432
395.749	2.78594
394.957	2.81755
394.159	2.84913
393.356	2.88069
392.549	2.91222
391.738	2.94373
390.924	2.97521
390.108	3.00667
389.289	3.03809
388.469	3.06947
387.649	3.10082
386.828	3.13214
386.007	3.16342
386.007	3.16342
383.887	3.22833
382.407	3.27369
381.349	3.3055
380.504	3.32978
379.665	3.35253
378.633	3.37976
378.633	3.37976
377.149	3.41186
375.657	3.44419
374.129	3.47656
372.537	3.50879
370.854	3.54069
369.053	3.57207
367.11	3.60276
365.001	3.63257
362.706	3.6613
360.204	3.68877
360.204	3.68877
356.203	3.71103
352.223	3.72271
348.24	3.72416
344.232	3.71569
340.182	3.69766
340.182	3.69766
337.902	3.68013
335.505	3.66072
333.682	3.63771
333.682	3.63771
331.092	3.61754
328.123	3.58234
325.24	3.54304
322.881	3.51059
322.881	3.51059
321.85	3.50054
320.555	3.48409
319.921	3.47112
319.921	3.47112
317.368	3.43733
314.894	3.40195
312.354	3.36628
312.354	3.36628
310.875	3.35349
309.324	3.3411
307.473	3.33123
307.473	3.33123
305.584	3.31523
303.988	3.30945
301.652	3.31418
301.652	3.31418
299.182	3.34729
296.407	3.37527
293.874	3.40531
293.874	3.40531
292.899	3.43008
291.693	3.458
290.344	3.4804
290.344	3.4804
289.467	3.5024
287.773	3.53168
286.645	3.5501
286.645	3.5501
285.028	3.58174
284.156	3.59836
283.57	3.61131
283.57	3.61131
280.419	3.66756
279.218	3.69037
278.889	3.69928
278.889	3.69928
277.636	3.71516
276.038	3.74217
275.221	3.75718
275.221	3.75718
272.739	3.79373
270.298	3.83028
267.892	3.86682
267.892	3.86682
265.902	3.89229
263.589	3.92084
261.173	3.9468
258.856	3.96448
258.856	3.96448
256.969	3.9792
254.759	3.98893
252.625	3.99374
252.625	3.99374
250.923	3.99911
248.023	3.99572
245.037	3.98848
242.983	3.98232
242.983	3.98232
241.632	3.97417
240.683	3.96777
239.523	3.96115
239.523	3.96115
237.528	3.94584
235.422	3.9306
233.347	3.91855
233.347	3.91855
231.533	3.90235
229.496	3.88879
227.811	3.87053
227.811	3.87053
227.37	3.86951
227.011	3.867
226.546	3.86084
226.546	3.86084
225.832	3.85614
224.737	3.84803
222.583	3.8333
222.583	3.8333
220.865	3.83523
219.251	3.83967
217.609	3.84948
217.609	3.84948
217.214	3.85709
216.683	3.86676
215.769	3.88502
215.769	3.88502
214.672	3.91786
213.593	3.95119
212.527	3.98443
211.468	4.01699
211.468	4.01699
211.069	4.03452
210.387	4.05663
209.924	4.07075
209.924	4.07075
208.877	4.10986
207.623	4.14242
206.172	4.17163
206.172	4.17163
204.763	4.18621
203.341	4.19431
201.939	4.19453
200.588	4.18544
199.319	4.16563
199.319	4.16563
198.955	4.16282
198.592	4.15995
198.23	4.15697
