Uv/Vis Spectrum: Barbital
Formula: C8H12N2O3
CAS: 57-44-3
Melting point: 190
Boiling point: sub.
Instrument: Beckman spectrophotometer
Origin: INSTITUTE OF ENERGY PROBLEMS OF CHEMICAL PHYSICS, RAS
Wavelength (nm)	Logarithm epsilon
230	3.71
231	3.71
232	3.71
233	3.72
234	3.73
235	3.74
236	3.76
237	3.77
238	3.78
239	3.79
240	3.8
241	3.81
242	3.82
243	3.83
244	3.83
245	3.84
246	3.84
247	3.84
248	3.84
249	3.84
250	3.84
251	3.84
252	3.83
253	3.82
254	3.81
255	3.81
256	3.8
257	3.8
258	3.78
259	3.76
