Uv/Vis Spectrum: 6-thioinosine
Formula: C10H12N4O4S
CAS: 574-25-4
Instrument: Unicam SP 800
Origin: INSTITUTE OF ENERGY PROBLEMS OF CHEMICAL PHYSICS, RAS
Wavelength (nm)	Logarithm epsilon
260.02	2.805
261.02	2.802
262.02	2.804
263.02	2.81
264.02	2.821
265.02	2.837
266.02	2.857
267.02	2.881
268.02	2.908
269.02	2.938
270.02	2.971
271.02	3.005
272.02	3.041
273.02	3.078
274.02	3.115
275.02	3.152
276.02	3.188
277.02	3.224
278.02	3.259
279.02	3.294
280.02	3.327
281.02	3.36
282.02	3.391
283.02	3.422
284.02	3.453
285.02	3.483
286.02	3.513
287.02	3.544
288.02	3.575
289.02	3.607
290.02	3.64
291.02	3.674
292.02	3.71
293.02	3.748
294.02	3.786
295.02	3.826
296.02	3.867
297.02	3.909
298.02	3.951
299.02	3.992
300.02	4.033
301.02	4.072
302.02	4.109
303.02	4.144
304.02	4.176
304.069	4.176
305.069	4.208
306.069	4.239
307.069	4.267
308.069	4.293
309.069	4.316
310.069	4.336
311.069	4.353
312.069	4.367
313.069	4.378
314.069	4.387
315.069	4.394
316.069	4.398
317.069	4.401
318.069	4.403
319.069	4.402
320.069	4.399
321.069	4.394
322.069	4.387
323.069	4.377
324.069	4.363
325.069	4.346
326.069	4.326
327.069	4.301
328.069	4.271
329.069	4.238
330.069	4.199
331.069	4.157
332.069	4.111
333.069	4.062
334.069	4.009
335.069	3.955
336.069	3.9
337.069	3.845
338.069	3.79
339.069	3.736
340.069	3.685
341.069	3.636
342.069	3.589
343.069	3.545
344.069	3.503
345.069	3.461
346.069	3.419
347.069	3.376
348.069	3.33
349.069	3.281
350.069	3.231
351.069	3.182
352.069	3.141
353.258	3.105
