Uv/Vis Spectrum: Methanone, diphenyl-, phenylhydrazone
Formula: C19H16N2
CAS: 574-61-8
Melting point: 136-137
Instrument: SF-16
Origin: INSTITUTE OF ENERGY PROBLEMS OF CHEMICAL PHYSICS, RAS
Wavelength (nm)	Logarithm epsilon
211.4	4.598
211.91	4.593
212.95	4.476
214.5	4.328
216.06	4.267
217.61	4.227
219.17	4.191
220.72	4.186
222.28	4.176
223.83	4.186
225.38	4.196
226.94	4.206
228.49	4.222
230.05	4.242
231.6	4.252
233.15	4.267
234.71	4.283
236.26	4.288
237.82	4.288
239.37	4.278
240.92	4.267
242.48	4.252
244.03	4.237
245.59	4.217
247.14	4.191
248.69	4.155
250.25	4.12
251.8	4.079
253.36	4.038
254.91	3.998
256.46	3.962
258.02	3.927
259.57	3.886
261.13	3.855
262.68	3.82
264.24	3.789
265.79	3.774
267.34	3.759
268.9	3.759
270.45	3.759
272.01	3.769
273.56	3.784
275.11	3.804
276.67	3.825
278.22	3.845
279.78	3.866
281.33	3.896
282.88	3.921
284.44	3.947
285.99	3.967
287.55	3.983
289.1	4.003
290.65	4.018
292.21	4.028
293.76	4.044
295.32	4.049
296.87	4.054
298.43	4.059
299.98	4.059
301.53	4.054
303.09	4.054
304.64	4.044
306.2	4.033
307.75	4.023
309.3	4.008
310.86	4.003
312.41	4.003
313.97	4.008
315.52	4.013
317.07	4.028
318.63	4.049
320.18	4.074
321.74	4.1
323.29	4.125
324.84	4.145
326.4	4.171
327.95	4.191
329.51	4.211
331.06	4.227
332.61	4.242
334.17	4.257
335.72	4.272
337.28	4.283
338.83	4.293
340.39	4.293
341.94	4.298
343.49	4.298
345.05	4.298
346.6	4.293
348.16	4.283
349.71	4.272
351.26	4.262
352.82	4.247
354.37	4.232
355.93	4.217
357.48	4.196
359.03	4.171
360.59	4.145
362.14	4.12
363.7	4.084
365.25	4.054
366.8	4.018
368.36	3.983
369.91	3.947
371.47	3.896
373.02	3.86
374.57	3.815
376.13	3.769
377.68	3.718
379.24	3.662
380.79	3.606
382.35	3.53
383.9	3.459
385.45	3.433
387.01	3.392
388.56	3.321
390.12	3.255
391.67	3.189
393.22	3.133
394.78	3.072
396.33	3.011
397.89	2.945
399.44	2.884
400.99	2.812
402.55	2.731
404.1	2.665
405.66	2.609
407.21	2.543
408.76	2.466
410.32	2.395
411.87	2.339
413.43	2.283
414.98	2.238
416.54	2.197
418.09	2.151
419.64	2.105
421.2	2.059
