Uv/Vis Spectrum: N-(diphenylmethylene)benzenamine
Formula: C19H15N
CAS: 574-45-8
Melting point: 113-114
Instrument: Beckman DK-1
Origin: INSTITUTE OF ENERGY PROBLEMS OF CHEMICAL PHYSICS, RAS
Wavelength (nm)	Logarithm epsilon
221.636	4.164
222.636	4.144
223.636	4.13
224.636	4.121
225.636	4.116
226.636	4.115
227.636	4.117
228.636	4.121
229.636	4.127
230.636	4.134
231.636	4.142
232.636	4.15
233.636	4.159
234.636	4.167
235.636	4.175
236.636	4.182
237.636	4.189
238.636	4.194
239.636	4.199
240.636	4.202
241.636	4.205
242.636	4.206
243.636	4.206
244.636	4.204
245.636	4.202
246.636	4.199
247.636	4.195
248.636	4.191
249.636	4.185
250.636	4.179
251.636	4.173
252.636	4.166
253.636	4.159
254.636	4.152
255.636	4.145
256.636	4.137
257.636	4.129
258.636	4.121
259.636	4.113
260.636	4.104
261.636	4.095
262.636	4.084
263.724	4.069
264.724	4.056
265.724	4.043
266.724	4.03
267.724	4.015
268.724	4
269.724	3.984
270.724	3.966
271.724	3.948
272.724	3.929
273.724	3.909
274.724	3.888
275.724	3.866
276.724	3.843
277.724	3.819
278.724	3.795
279.724	3.769
280.724	3.743
281.724	3.716
282.724	3.688
283.724	3.659
284.724	3.631
285.724	3.601
286.724	3.572
287.724	3.542
288.724	3.512
289.724	3.482
290.724	3.452
291.724	3.423
292.724	3.394
293.48	3.365
294.48	3.344
295.48	3.322
296.48	3.3
297.48	3.277
298.48	3.256
299.48	3.236
300.48	3.218
301.48	3.203
302.48	3.191
303.48	3.182
304.48	3.176
305.48	3.172
306.48	3.172
307.48	3.173
308.48	3.177
309.48	3.183
310.48	3.19
311.297	3.198
312.297	3.206
313.297	3.214
314.297	3.221
315.297	3.229
316.297	3.237
317.297	3.244
318.297	3.252
319.297	3.26
320.297	3.267
321.297	3.275
322.297	3.282
323.297	3.29
324.297	3.298
325.297	3.305
326.297	3.313
327.288	3.319
328.288	3.325
329.288	3.332
330.288	3.337
331.288	3.343
332.288	3.347
333.288	3.351
334.288	3.355
335.288	3.357
336.288	3.359
337.288	3.36
338.288	3.36
339.288	3.359
340.288	3.357
341.288	3.355
342.288	3.351
343.288	3.347
344.288	3.342
345.288	3.337
346.288	3.331
347.288	3.324
348.288	3.317
349.288	3.309
350.288	3.301
351.288	3.293
352.288	3.284
353.288	3.275
354.288	3.265
355.288	3.256
356.288	3.246
357.288	3.236
358.086	3.227
359.086	3.22
360.086	3.211
361.086	3.199
362.086	3.186
363.086	3.171
364.086	3.155
365.086	3.139
366.086	3.122
367.086	3.106
368.086	3.09
369.086	3.074
370.086	3.059
371.086	3.044
372.086	3.03
373.086	3.015
374.086	3.001
375.086	2.987
376.086	2.973
377.086	2.958
378.086	2.943
379.086	2.927
380.086	2.909
