Uv/Vis Spectrum: (E)-1-chloro-2-(ethylthio)ethene
Formula: C4H7ClS
CAS: 57466-64-5
Instrument: Unicam SP 700
Origin: INSTITUTE OF ENERGY PROBLEMS OF CHEMICAL PHYSICS, RAS
Wavelength (nm)	Logarithm epsilon
200.49	3.584
200.99	3.57
201.49	3.548
201.99	3.522
202.49	3.493
202.99	3.464
203.49	3.437
203.99	3.412
204.49	3.391
204.99	3.375
205.49	3.363
205.99	3.357
206.49	3.356
206.99	3.36
207.49	3.369
207.99	3.383
208.49	3.402
208.99	3.424
209.486	3.449
209.986	3.475
210.486	3.512
210.986	3.553
211.486	3.593
211.986	3.628
212.486	3.655
212.986	3.674
213.486	3.683
213.986	3.683
214.486	3.676
214.986	3.664
215.486	3.65
215.986	3.638
216.486	3.632
216.986	3.637
216.988	3.639
217.488	3.648
217.988	3.671
218.488	3.701
218.988	3.729
219.488	3.75
219.988	3.759
220.488	3.751
220.988	3.722
221.488	3.67
221.548	3.66
222.048	3.588
222.548	3.483
223.048	3.364
223.548	3.247
224.048	3.141
224.548	3.051
225.048	2.978
225.548	2.915
226.048	2.852
226.548	2.773
