Uv/Vis Spectrum: (S)-2-methyl-2,3-pentadienoic acid
Formula: C6H8O2
CAS: 57470-34-5
Boiling point: 75-77/0.06 mm
Instrument: unknown
Origin: INSTITUTE OF ENERGY PROBLEMS OF CHEMICAL PHYSICS, RAS
Wavelength (nm)	Logarithm epsilon
211.364	4.196
212.364	4.171
213.364	4.149
214.364	4.131
215.364	4.116
216.364	4.104
217.364	4.095
218.364	4.088
219.364	4.083
220.364	4.08
221.364	4.079
222.364	4.08
223.364	4.082
224.364	4.085
225.364	4.09
226.364	4.095
227.364	4.102
228.364	4.109
229.364	4.117
230.364	4.125
231.364	4.134
232.364	4.142
233.364	4.151
234.364	4.16
235.364	4.169
236.364	4.178
237.364	4.187
238.364	4.195
239.364	4.203
240.364	4.211
241.364	4.219
242.364	4.226
243.364	4.232
244.364	4.239
245.364	4.244
246.364	4.25
247.364	4.255
248.364	4.259
249.364	4.264
250.364	4.268
251.364	4.271
252.364	4.275
253.364	4.278
254.364	4.281
255.364	4.284
256.364	4.287
257.364	4.29
258.364	4.293
259.364	4.297
260.364	4.301
261.364	4.306
262.364	4.311
263.364	4.317
264.001	4.323
265.001	4.329
266.001	4.337
267.001	4.346
268.001	4.356
269.001	4.367
270.001	4.378
271.001	4.389
272.001	4.399
273.001	4.41
274.001	4.42
275.001	4.429
276.001	4.437
277.001	4.445
278.001	4.451
279.001	4.456
280.001	4.46
281.001	4.462
282.001	4.463
283.001	4.462
284.001	4.46
285.001	4.456
286.001	4.45
287.001	4.443
288.001	4.435
289.001	4.424
290.001	4.413
291.001	4.399
292.001	4.384
293.001	4.367
294.001	4.349
295.001	4.329
296.001	4.308
297.001	4.285
298.001	4.26
299.001	4.233
300.001	4.204
301.001	4.174
302.001	4.142
303.001	4.107
304.001	4.071
305.001	4.032
306.001	3.99
307.001	3.946
308.001	3.899
309.001	3.848
309.203	3.835
310.203	3.781
311.203	3.731
312.203	3.685
313.203	3.642
314.203	3.602
315.203	3.564
316.203	3.529
317.203	3.497
318.203	3.466
319.203	3.439
320.203	3.414
321.203	3.392
322.203	3.373
323.203	3.357
324.203	3.345
325.203	3.336
326.203	3.33
327.203	3.328
328.203	3.329
329.203	3.333
330.203	3.34
331.203	3.349
332.203	3.361
333.203	3.374
334.203	3.389
335.203	3.406
336.203	3.422
337.203	3.439
338.203	3.456
338.644	3.463
339.644	3.478
340.644	3.495
341.644	3.512
342.644	3.53
343.644	3.548
344.644	3.566
345.644	3.584
346.644	3.603
347.644	3.62
348.644	3.638
349.644	3.655
350.644	3.671
351.644	3.687
352.644	3.702
353.644	3.716
354.644	3.729
355.644	3.742
356.644	3.754
357.644	3.764
358.644	3.774
359.644	3.783
360.644	3.791
361.644	3.798
362.644	3.804
363.644	3.81
364.644	3.814
365.644	3.818
366.644	3.821
367.644	3.823
368.644	3.824
369.644	3.824
370.644	3.824
371.644	3.823
372.644	3.821
373.644	3.819
374.644	3.816
375.644	3.812
376.644	3.807
377.644	3.802
378.644	3.796
379.644	3.79
380.644	3.783
381.644	3.775
382.644	3.766
383.644	3.757
384.644	3.747
385.644	3.735
386.644	3.723
387.644	3.71
387.712	3.706
388.712	3.698
389.712	3.681
390.712	3.656
391.712	3.626
392.712	3.591
393.712	3.552
394.712	3.511
395.712	3.466
396.712	3.417
397.712	3.365
398.712	3.308
399.712	3.245
400.712	3.176
