Uv/Vis Spectrum: 3,5-dimethoxy-4-phenyl-1-benzothiepin
Formula: C18H16O2S
CAS: 57458-94-3
Melting point: 83-84
Instrument: Leitz-Unicam SP 800
Origin: INSTITUTE OF ENERGY PROBLEMS OF CHEMICAL PHYSICS, RAS
Wavelength (nm)	Logarithm epsilon
255.779	4.082
259.093	4.113
262.493	4.127
265.984	4.118
269.569	4.089
273.252	4.043
277.037	3.988
280.929	3.937
281.16	3.935
285.169	3.897
289.294	3.867
293.54	3.805
297.912	3.704
302.417	3.574
307.06	3.425
311.848	3.266
316.787	3.111
321.886	2.994
321.999	2.989
327.268	2.853
332.713	2.739
338.341	2.656
344.164	2.591
350.19	2.527
356.431	2.45
362.898	2.354
369.604	2.238
376.563	2.096
383.789	1.9
391.298	1.568
391.64	1.546
