Uv/Vis Spectrum: (S)-2-ethyl-2,3-pentadienoic acid
Formula: C7H10O2
CAS: 57470-30-1
Boiling point: 86-89/0.06 mm
Instrument: unknown
Origin: INSTITUTE OF ENERGY PROBLEMS OF CHEMICAL PHYSICS, RAS
Wavelength (nm)	Logarithm epsilon
204.167	4.885
204.565	4.879
206.065	4.857
207.565	4.85
209.065	4.853
210.565	4.863
212.065	4.877
213.565	4.891
215.065	4.904
216.565	4.912
218.065	4.912
219.565	4.901
221.065	4.877
222.565	4.837
224.065	4.78
225.565	4.704
227.065	4.61
228.565	4.498
230.068	4.356
231.568	4.211
233.068	4.066
234.568	3.921
236.068	3.779
237.568	3.643
239.068	3.516
240.568	3.401
242.068	3.302
243.568	3.219
245.068	3.153
246.568	3.103
248.068	3.068
249.568	3.044
251.068	3.027
252.568	3.012
254.068	2.995
255.568	2.972
257.068	2.94
258.568	2.9
260.068	2.854
261.568	2.812
263.068	2.79
264.865	2.741
266.304	2.703
267.923	2.646
269.423	2.599
270.923	2.557
272.423	2.514
273.923	2.465
275.423	2.409
276.923	2.344
278.423	2.27
279.923	2.188
281.423	2.098
282.923	2.002
284.423	1.903
285.923	1.802
287.423	1.701
288.923	1.602
290.423	1.507
291.923	1.416
293.423	1.33
294.923	1.251
296.423	1.179
297.923	1.114
299.423	1.055
300.923	1.002
302.423	0.955
303.923	0.913
305.423	0.874
306.923	0.839
308.423	0.806
309.923	0.774
311.423	0.743
312.923	0.713
314.423	0.683
315.923	0.652
317.423	0.622
318.923	0.592
320.423	0.563
321.923	0.535
323.423	0.508
324.923	0.484
326.423	0.462
327.923	0.441
329.423	0.42
330.923	0.396
