Uv/Vis Spectrum: 1,7-Dimethylnaphthalene
Formula: C12H12
CAS: 575-37-1
Melting point: - 13.9
Boiling point: 263
Instrument: unknown
Origin: INSTITUTE OF ENERGY PROBLEMS OF CHEMICAL PHYSICS, RAS
Wavelength (nm)	Logarithm epsilon
303.85	2.781
303.89	2.779
303.93	2.777
303.97	2.775
304.01	2.774
304.06	2.771
304.18	2.764
304.3	2.758
304.43	2.748
304.53	2.738
304.66	2.73
304.8	2.726
304.92	2.723
305.05	2.722
305.15	2.722
305.28	2.721
305.43	2.721
305.54	2.721
305.67	2.721
305.79	2.721
305.92	2.722
306.04	2.722
306.17	2.722
306.29	2.723
306.41	2.723
306.54	2.723
306.66	2.725
306.79	2.725
306.91	2.725
307.03	2.726
307.16	2.726
307.28	2.726
307.41	2.727
307.53	2.727
307.66	2.727
307.78	2.727
307.9	2.727
308.03	2.727
308.15	2.727
308.28	2.727
308.4	2.726
308.52	2.726
308.65	2.725
308.77	2.723
308.9	2.722
309.02	2.719
309.14	2.715
309.27	2.711
309.39	2.704
309.52	2.685
309.64	2.675
309.77	2.668
309.89	2.662
310.01	2.655
310.14	2.648
310.26	2.641
310.39	2.636
310.51	2.629
310.63	2.625
310.76	2.616
310.88	2.61
311.01	2.6
311.13	2.592
311.26	2.584
311.38	2.575
311.5	2.568
311.63	2.558
311.75	2.549
311.88	2.54
312	2.532
312.12	2.525
312.25	2.516
312.37	2.51
312.5	2.504
312.62	2.497
312.71	2.494
312.86	2.492
312.99	2.493
313.12	2.495
313.24	2.497
313.37	2.501
313.48	2.503
313.62	2.506
313.73	2.508
313.87	2.511
313.99	2.512
314.11	2.514
314.23	2.515
314.35	2.516
314.48	2.516
314.61	2.516
314.73	2.516
314.86	2.515
314.98	2.514
315.1	2.512
315.23	2.511
315.35	2.508
315.48	2.505
315.6	2.501
315.72	2.497
315.85	2.493
315.97	2.488
316.1	2.482
316.22	2.477
316.34	2.47
316.47	2.462
316.59	2.455
316.72	2.447
316.84	2.438
316.97	2.43
317.09	2.421
317.21	2.412
317.34	2.403
317.46	2.395
317.59	2.386
317.71	2.378
317.83	2.368
317.96	2.36
318.08	2.353
318.21	2.347
318.33	2.34
318.46	2.334
318.58	2.33
318.7	2.327
318.83	2.325
318.95	2.323
319.08	2.323
319.2	2.327
319.32	2.334
319.45	2.341
319.57	2.352
319.7	2.368
319.82	2.398
319.94	2.434
320.06	2.466
320.19	2.504
320.3	2.532
320.42	2.561
320.57	2.599
320.69	2.629
320.81	2.649
320.94	2.667
321.06	2.679
321.19	2.69
321.31	2.697
321.43	2.704
321.56	2.707
321.68	2.71
321.81	2.71
321.93	2.707
322.06	2.7
322.18	2.695
322.3	2.674
322.37	2.651
322.43	2.621
322.5	2.587
322.55	2.559
322.61	2.532
322.65	2.508
322.71	2.473
322.8	2.432
322.88	2.392
323.02	2.351
323.17	2.323
323.28	2.307
323.42	2.293
323.54	2.282
323.67	2.271
323.79	2.262
323.92	2.251
324.04	2.242
324.17	2.233
324.29	2.223
324.41	2.214
324.54	2.203
324.66	2.19
