Uv/Vis Spectrum: Naphthalene, 1,3-dimethyl-
Formula: C12H12
CAS: 575-41-7
Melting point: - 6
Boiling point: 263
Instrument: unknown
Origin: INSTITUTE OF ENERGY PROBLEMS OF CHEMICAL PHYSICS, RAS
Wavelength (nm)	Logarithm epsilon
304.2	2.786
304.23	2.784
304.26	2.783
304.3	2.78
304.34	2.777
304.4	2.773
304.44	2.77
304.5	2.765
304.58	2.758
304.69	2.748
304.9	2.732
305.07	2.722
305.24	2.716
305.41	2.712
305.58	2.711
305.75	2.711
305.92	2.712
306.09	2.714
306.26	2.716
306.43	2.719
306.61	2.721
306.77	2.723
306.95	2.726
307.12	2.728
307.29	2.731
307.45	2.735
307.63	2.737
307.8	2.737
307.97	2.735
308.14	2.726
308.31	2.718
308.46	2.711
308.6	2.703
308.74	2.696
308.9	2.686
309.12	2.673
309.29	2.662
309.5	2.65
309.67	2.637
309.84	2.628
310.01	2.618
310.18	2.607
310.35	2.596
310.52	2.585
310.69	2.576
310.86	2.567
311.04	2.56
311.21	2.552
311.38	2.546
311.55	2.539
311.72	2.532
311.89	2.526
312.06	2.521
312.23	2.516
312.4	2.51
312.57	2.505
312.74	2.499
312.91	2.494
313.08	2.49
313.25	2.486
313.42	2.482
313.59	2.48
313.76	2.476
313.93	2.475
314.1	2.472
314.27	2.471
314.44	2.471
314.61	2.471
314.78	2.471
314.95	2.472
315.13	2.474
315.3	2.477
315.47	2.481
315.64	2.485
315.81	2.488
315.98	2.491
316.14	2.493
316.32	2.495
316.49	2.496
316.66	2.498
316.83	2.498
317	2.494
317.14	2.49
317.32	2.484
317.51	2.475
317.68	2.466
317.85	2.449
318.02	2.432
318.19	2.411
318.36	2.395
318.53	2.371
318.7	2.356
318.87	2.347
319.04	2.343
319.22	2.341
319.39	2.342
319.56	2.346
319.73	2.356
319.9	2.371
320.05	2.387
320.22	2.407
320.36	2.426
320.43	2.437
320.49	2.447
320.55	2.459
320.58	2.471
320.64	2.486
320.68	2.499
320.74	2.524
320.82	2.547
320.89	2.573
320.95	2.597
321	2.619
321.13	2.666
321.26	2.682
321.39	2.692
321.52	2.695
321.64	2.697
321.77	2.697
321.9	2.694
322.03	2.689
322.16	2.678
322.28	2.651
322.41	2.63
322.54	2.594
322.62	2.571
322.77	2.539
322.96	2.497
323.14	2.467
323.28	2.434
323.48	2.396
323.62	2.372
323.77	2.351
323.91	2.331
324.11	2.302
324.33	2.272
324.5	2.25
324.67	2.227
324.84	2.205
325.01	2.188
