Uv/Vis Spectrum: 1,2,5,6-tetrahydrodicyclobuta[b,h]biphenylene
Formula: C16H12
CAS: 57674-80-3
Melting point: 225-226
Instrument: unknown
Origin: INSTITUTE OF ENERGY PROBLEMS OF CHEMICAL PHYSICS, RAS
Wavelength (nm)	Logarithm epsilon
221.021	3.858
222.57	3.871
224.07	3.885
225.57	3.907
227.07	3.945
228.57	4
230.07	4.067
231.57	4.141
233.07	4.215
234.57	4.284
236.07	4.346
237.57	4.402
239.07	4.457
240.57	4.521
241.77	4.617
242.684	4.678
243.729	4.718
245.229	4.708
246.729	4.656
248.229	4.602
249.846	4.592
250.766	4.619
251.379	4.654
251.992	4.73
252.628	4.802
253.347	4.875
254.128	4.895
255.059	4.854
255.365	4.799
255.628	4.727
257.128	4.426
258.809	4.129
259.032	4.099
260.532	3.968
262.032	3.885
263.532	3.835
265.032	3.806
266.532	3.788
268.032	3.776
269.532	3.764
271.032	3.75
272.532	3.734
274.032	3.716
275.532	3.697
277.032	3.68
278.532	3.665
280.032	3.653
281.532	3.644
283.032	3.633
284.532	3.614
286.03	3.592
287.277	3.57
288.777	3.546
290.277	3.521
291.777	3.494
293.277	3.465
294.777	3.435
296.277	3.404
297.777	3.373
299.277	3.341
300.777	3.31
302.277	3.28
303.777	3.251
305.277	3.224
306.777	3.199
308.277	3.178
309.777	3.16
311.277	3.145
312.777	3.135
314.277	3.13
315.777	3.128
317.277	3.132
318.777	3.14
320.277	3.153
321.777	3.17
323.277	3.19
324.777	3.214
326.277	3.242
327.777	3.271
329.277	3.302
330.777	3.334
332.277	3.366
333.777	3.397
335.277	3.428
336.777	3.458
338.277	3.486
339.935	3.518
341.435	3.541
342.935	3.564
344.435	3.588
345.935	3.612
347.435	3.637
348.935	3.663
350.435	3.69
351.935	3.719
353.435	3.75
354.935	3.784
356.435	3.821
357.935	3.859
359.435	3.898
360.935	3.937
362.435	3.973
363.935	4.004
365.435	4.026
366.935	4.035
367.007	4.036
368.507	4.011
370.007	3.997
371.507	3.987
373.007	3.98
374.507	3.974
376.007	3.97
377.507	3.972
379.007	3.98
380.507	3.996
382.007	4.017
383.507	4.041
385.007	4.058
386.507	4.055
387.855	4.012
389.355	3.93
390.855	3.85
392.355	3.77
393.855	3.688
395.355	3.601
396.855	3.51
398.355	3.416
399.855	3.318
401.355	3.218
402.855	3.119
404.355	3.022
405.855	2.928
407.355	2.841
408.855	2.76
410.355	2.689
411.855	2.627
413.355	2.574
414.855	2.531
416.355	2.496
