Uv/Vis Spectrum: 1-Bromo-2,6-dimethylbenzene
Formula: C8H9Br
CAS: 576-22-7
Boiling point: 92-93/ 20 mm
Instrument: unknown
Origin: INSTITUTE OF ENERGY PROBLEMS OF CHEMICAL PHYSICS, RAS
Wavelength (nm)	Logarithm epsilon
226.348	3.603
226.425	3.602
227.425	3.542
228.425	3.474
229.425	3.401
230.425	3.326
231.425	3.251
232.425	3.176
233.425	3.102
234.425	3.03
235.425	2.959
236.425	2.889
237.425	2.818
238.425	2.748
239.425	2.676
240.399	2.602
241.399	2.534
242.399	2.468
243.399	2.404
244.399	2.344
245.399	2.287
246.399	2.235
247.399	2.191
248.399	2.155
249.399	2.128
250.399	2.113
251.399	2.109
252.399	2.117
253.399	2.134
254.399	2.159
255.366	2.191
256.366	2.212
257.366	2.224
258.366	2.233
259.366	2.241
260.366	2.25
261.366	2.26
262.366	2.273
263.366	2.287
264.366	2.299
265.366	2.306
266.366	2.303
267.33	2.286
268.33	2.237
269.33	2.201
270.33	2.173
271.33	2.146
272.33	2.119
273.33	2.089
274.33	2.057
274.991	2.038
