Uv/Vis Spectrum: Benzene, 2-bromo-1,3,5-trimethyl-
Formula: C9H11Br
CAS: 576-83-0
Melting point: -1
Boiling point: 225
Instrument: Spectrophotometer SF-16
Origin: INSTITUTE OF ENERGY PROBLEMS OF CHEMICAL PHYSICS, RAS
Wavelength (nm)	Logarithm epsilon
210	4.01999
211	3.98
212	3.95
213	3.93
214	3.92
215	3.9
216	3.88
217	3.87
218	3.86
219	3.85
220	3.84
221	3.83
222	3.81
223	3.79
224	3.78
225	3.75
226	3.73
227	3.71
228	3.68
229	3.65
230	3.62
231	3.58
232	3.55
233	3.51
234	3.44
235	3.36
236	3.27
237	3.19
238	3.1
239	3.01
240	2.92
241	2.83
242	2.75
243	2.66
244	2.58
245	2.51
246	2.43
247	2.36
248	2.3
249	2.26
250	2.22
251	2.2
252	2.19
253	2.17
254	2.16
255	2.15
256	2.14
257	2.14
258	2.14
259	2.14
260	2.14999
261	2.16
262	2.17
263	2.18
264	2.2
265	2.21
266	2.22
267	2.23
268	2.24
269	2.24
