Uv/Vis Spectrum: N-Acetylindole
Formula: C10H9NO
CAS: 576-15-8
Instrument: Optica Milano CF4R
Origin: INSTITUTE OF ENERGY PROBLEMS OF CHEMICAL PHYSICS, RAS
Wavelength (nm)	Logarithm epsilon
220.05	4.026
220.3	4.028
220.55	4.031
221.05	4.033
221.31	4.036
222.31	4.053
223.06	4.071
223.82	4.094
224.57	4.114
225.33	4.134
226.08	4.157
226.83	4.18
227.59	4.192
228.34	4.212
229.09	4.227
229.85	4.248
230.6	4.268
231.36	4.286
232.11	4.303
232.86	4.318
233.62	4.331
234.37	4.341
235.12	4.354
235.88	4.361
236.63	4.366
237.39	4.369
238.14	4.371
238.89	4.371
239.65	4.366
240.4	4.364
241.15	4.354
241.91	4.341
242.66	4.331
243.42	4.316
244.17	4.296
244.92	4.278
245.68	4.26
246.43	4.238
247.18	4.21
247.94	4.177
248.69	4.149
249.45	4.119
250.2	4.091
250.95	4.063
251.71	4.036
252.46	4.021
253.21	4.003
253.97	3.988
254.72	3.975
255.48	3.965
256.23	3.958
256.98	3.947
257.74	3.94
258.49	3.932
259.24	3.922
260	3.917
260.75	3.91
261.5	3.907
262.26	3.899
263.01	3.897
263.77	3.889
264.52	3.882
265.27	3.877
266.03	3.864
266.78	3.857
267.53	3.844
268.29	3.829
269.04	3.811
269.8	3.773
270.55	3.72
271.3	3.662
272.06	3.622
272.81	3.594
273.56	3.569
274.32	3.544
275.07	3.534
275.83	3.526
276.58	3.524
277.33	3.524
278.09	3.524
278.84	3.526
279.59	3.531
280.35	3.534
281.1	3.541
281.86	3.546
282.61	3.551
283.36	3.561
284.12	3.569
284.87	3.579
285.62	3.592
286.38	3.612
287.13	3.647
287.89	3.67
288.64	3.677
289.39	3.642
290.4	3.299
291.4	3.185
292.16	3.074
292.91	2.976
293.66	2.88
294.42	2.799
