Uv/Vis Spectrum: Phenol, 2,3-dichloro-
Formula: C6H4Cl2O
CAS: 576-24-9
Melting point: 56-57
Instrument: Spectromom 201
Origin: INSTITUTE OF ENERGY PROBLEMS OF CHEMICAL PHYSICS, RAS
Wavelength (nm)	Logarithm epsilon
210.833	4.30983
211.011	4.30654
211.304	4.27945
211.481	4.27616
211.778	4.25229
211.956	4.249
212.249	4.22191
212.429	4.22184
212.727	4.19837
212.904	4.19508
213.204	4.17484
213.381	4.17114
213.682	4.1509
213.859	4.1476
214.163	4.13058
214.34	4.12728
214.643	4.11026
214.804	4.11019
215.124	4.08994
215.285	4.08987
215.608	4.07284
215.769	4.07277
216.093	4.05614
216.427	4.04916
217.068	4.02878
217.401	4.0218
218.043	4.00142
218.2	3.99814
218.861	3.97775
220.985	3.93664
221.792	3.92263
222.467	3.91592
222.784	3.91217
223.619	3.90539
224.113	3.89835
224.768	3.89125
224.948	3.89117
225.443	3.88454
226.097	3.87743
226.591	3.87039
227.396	3.85316
227.73	3.84659
228.057	3.83277
228.214	3.82948
228.541	3.81607
228.702	3.81601
229.176	3.78885
229.336	3.78878
229.67	3.7818
229.987	3.75833
230.147	3.75827
230.458	3.72795
230.615	3.72427
230.929	3.69758
231.085	3.69389
231.376	3.66358
231.553	3.66029
232.157	3.60289
232.315	3.59961
232.621	3.56568
232.779	3.56239
233.086	3.52886
233.243	3.52517
233.553	3.49486
233.71	3.49158
234.018	3.45804
234.174	3.45436
234.478	3.41721
234.635	3.41392
234.946	3.38361
235.103	3.38033
235.403	3.33995
235.563	3.33989
235.874	3.30958
236.031	3.30589
236.338	3.27236
236.498	3.27229
236.805	3.23836
236.962	3.23507
237.263	3.1947
237.42	3.19142
237.717	3.14743
237.874	3.14414
238.181	3.11021
238.338	3.10692
238.642	3.06977
238.799	3.06649
239.102	3.02933
239.26	3.02605
239.563	2.9889
239.72	2.98561
240.024	2.94846
240.181	2.94518
240.482	2.9048
240.638	2.90112
240.946	2.86759
241.102	2.8639
241.407	2.82715
241.563	2.82346
241.851	2.78994
242.028	2.78665
242.315	2.75272
242.492	2.74943
242.772	2.70906
242.949	2.70537
243.236	2.67185
243.413	2.66856
243.7	2.63463
243.877	2.63134
244.165	2.59781
244.341	2.59412
244.625	2.55697
244.802	2.55368
245.096	2.5266
245.273	2.52331
245.567	2.49622
245.747	2.49615
246.041	2.46946
246.221	2.46939
246.518	2.44552
246.675	2.44224
246.996	2.42198
247.156	2.42192
247.473	2.39804
247.634	2.39798
247.958	2.38135
248.118	2.38128
248.442	2.36424
248.602	2.36418
248.929	2.35077
249.09	2.3507
249.751	2.33031
249.911	2.33025
250.242	2.32005
250.402	2.31999
250.896	2.31295
251.891	2.3057
252.9	2.31214
253.738	2.32871
254.085	2.33501
254.252	2.34178
254.6	2.34849
254.773	2.3617
255.121	2.36841
255.291	2.3784
255.642	2.38832
255.812	2.39832
256.162	2.40824
256.333	2.41823
256.683	2.42815
256.857	2.44137
257.207	2.45129
257.381	2.46491
257.732	2.47483
257.902	2.48482
258.249	2.49112
258.426	2.50796
258.777	2.51788
258.947	2.52787
259.298	2.5378
259.471	2.55101
259.822	2.56093
259.996	2.57455
260.347	2.58447
260.52	2.59768
260.871	2.60761
261.045	2.62122
261.399	2.63436
261.572	2.64758
261.923	2.6575
262.267	2.68111
262.618	2.69103
262.791	2.70424
263.142	2.71417
263.319	2.731
263.669	2.74092
264.013	2.76413
264.364	2.77405
264.541	2.79089
264.892	2.80081
265.069	2.81764
265.423	2.83079
265.6	2.84762
265.954	2.86076
266.131	2.87759
266.481	2.88752
266.658	2.90435
267.009	2.91427
267.183	2.92749
267.533	2.93741
267.71	2.95424
268.054	2.95733
268.234	2.97738
268.585	2.9873
268.759	3.00092
269.11	3.01084
269.283	3.02405
269.634	3.03397
269.804	3.04397
270.155	3.05389
270.325	3.06389
270.676	3.07381
270.846	3.0838
271.197	3.09373
271.53	3.10687
271.881	3.1168
272.055	3.13041
272.566	3.14027
272.763	3.1571
273.094	3.16703
273.447	3.18017
273.958	3.19002
274.125	3.1968
274.469	3.19988
274.639	3.20988
275.337	3.2265
275.511	3.23972
276.022	3.24957
276.696	3.26259
276.867	3.27258
277.378	3.28284
277.565	3.2892
278.079	3.30268
278.406	3.30899
278.593	3.31576
279.615	3.33548
280.944	3.34178
281.779	3.33461
282.597	3.33106
283.592	3.32382
284.096	3.32683
284.788	3.33662
285.112	3.34011
285.298	3.34648
285.803	3.3499
285.97	3.35627
286.474	3.35969
286.981	3.36593
287.98	3.36231
288.952	3.33173
289.112	3.33166
289.423	3.30135
289.58	3.29806
289.883	3.26091
290.04	3.25723
290.348	3.22369
290.505	3.22041
290.808	3.18326
290.965	3.17997
291.272	3.14604
291.429	3.14276
291.73	3.10238
291.887	3.0987
292.187	3.05832
292.344	3.05504
292.622	3.01146
292.798	3.00776
293.075	2.96418
293.252	2.96049
293.523	2.91006
293.7	2.90677
293.97	2.85635
294.147	2.85306
294.418	2.80223
294.595	2.79894
294.858	2.74168
295.035	2.73839
295.296	2.6779
295.473	2.67421
295.733	2.61373
295.91	2.61044
296.177	2.5568
296.354	2.5531
296.618	2.49584
296.798	2.49577
297.062	2.4389
297.239	2.43521
297.506	2.38157
297.663	2.37788
297.953	2.32745
298.11	2.32417
298.394	2.2669
298.554	2.26683
298.838	2.20956
298.995	2.20628
299.279	2.14901
299.436	2.14572
299.723	2.09167
299.88	2.08839
300.174	2.04117
300.331	2.03789
300.618	1.98424
300.778	1.98418
301.065	1.93012
301.222	1.92684
301.509	1.87279
301.666	1.8695
301.96	1.82229
302.117	1.81901
302.404	1.76496
302.561	1.76167
302.858	1.71808
303.015	1.7144
303.309	1.66718
303.466	1.6639
303.75	1.60663
303.907	1.60335
304.194	1.5497
304.351	1.54601
304.634	1.48874
304.791	1.48545
305.079	1.4318
305.235	1.42812
305.526	1.37769
305.683	1.37441
305.974	1.32397
306.13	1.32029
306.421	1.26986
306.578	1.26657
306.868	1.21614
307.025	1.21246
307.312	1.15881
307.469	1.15552
307.746	1.11154
307.923	1.10825
308.19	1.0542
308.367	1.05091
308.641	1.00371
308.818	1.00041
309.089	0.94999
309.265	0.946295
309.539	0.899498
309.716	0.895804
309.99	0.849002
