Uv/Vis Spectrum: o-Nitroacetophenone
Formula: C8H7NO3
CAS: 577-59-3
Instrument: n.i.g.
Origin: INSTITUTE OF ENERGY PROBLEMS OF CHEMICAL PHYSICS, RAS
Wavelength (nm)	Logarithm epsilon
403.61	0.638649
402.837	0.674769
402.004	0.710633
401.126	0.746276
400.216	0.781712
399.288	0.816983
398.357	0.852102
397.436	0.887105
396.537	0.922014
395.675	0.95686
394.861	0.991669
394.861	0.991669
393.44	1.01729
392.138	1.05845
390.998	1.10573
390.063	1.14967
389.374	1.18085
389.374	1.18085
386.452	1.27156
384.2	1.34228
382.509	1.39558
381.281	1.43404
380.422	1.46023
379.843	1.47673
379.458	1.48612
379.181	1.49097
378.93	1.49387
378.93	1.49387
378.892	1.50163
378.837	1.5094
378.774	1.51717
378.774	1.51717
375.575	1.595
373.931	1.63806
373.037	1.65585
373.037	1.65585
371.809	1.69017
370.549	1.72391
369.262	1.75717
367.954	1.79009
366.63	1.82277
365.297	1.85533
363.958	1.88789
362.619	1.92056
361.286	1.95347
359.962	1.98672
359.962	1.98672
359.404	1.99081
358.902	1.9997
358.026	2.02101
358.026	2.02101
356.497	2.06503
353.922	2.10283
351.119	2.13679
351.119	2.13679
348.826	2.14335
346.366	2.14823
341.697	2.1556
341.697	2.1556
339.541	2.17384
337.515	2.19373
335.611	2.21515
333.818	2.23798
332.127	2.2621
330.53	2.2874
329.018	2.31376
327.584	2.34106
326.22	2.36918
324.918	2.398
323.673	2.42741
322.478	2.45729
321.325	2.48753
320.208	2.51799
319.122	2.54856
318.061	2.57914
317.018	2.60959
315.989	2.6398
314.968	2.66965
313.949	2.69903
312.927	2.72781
311.898	2.75588
311.898	2.75588
310.304	2.79003
309.02	2.8175
307.894	2.84124
306.775	2.86418
305.519	2.88926
303.988	2.91944
302.049	2.95764
299.578	3.00681
299.578	3.00681
298.988	3.01198
297.701	3.02988
295.314	3.06441
291.469	3.11951
291.469	3.11951
289.387	3.14344
287.334	3.16737
285.311	3.19129
283.315	3.21522
283.315	3.21522
279.452	3.27886
277.947	3.30235
277.453	3.31846
277.453	3.31846
277.45	3.31436
277.446	3.31017
277.442	3.3058
277.442	3.3058
275.87	3.34464
274.65	3.36554
273.526	3.38602
272.24	3.41096
270.542	3.44521
268.201	3.49364
268.201	3.49364
266.438	3.5124
264.698	3.53017
262.928	3.54718
261.076	3.56371
261.076	3.56371
259.653	3.56403
258.602	3.56286
257.023	3.55918
257.023	3.55918
255.427	3.54848
253.911	3.53917
252.456	3.5313
251.046	3.52494
249.665	3.52014
248.296	3.51697
246.925	3.51548
245.539	3.51573
244.123	3.51779
242.664	3.52171
241.15	3.52756
241.15	3.52756
240.648	3.53202
239.437	3.53853
237.462	3.55049
237.462	3.55049
236.737	3.55881
235.119	3.57498
233.071	3.59611
231.033	3.61933
231.033	3.61933
230.507	3.62854
229.529	3.64327
228.177	3.66368
226.533	3.68994
224.676	3.72219
