Uv/Vis Spectrum: p-Anisidine, 3-nitro-,
Formula: C7H8N2O3
CAS: 577-72-0
Melting point: 123-125
Instrument: Spektromom 201
Origin: INSTITUTE OF ENERGY PROBLEMS OF CHEMICAL PHYSICS, RAS
Wavelength (nm)	Logarithm epsilon
211.06	3.683
212.25	3.703
213.27	3.727
214.29	3.751
214.97	3.778
215.82	3.805
216.5	3.832
217.01	3.859
217.69	3.887
218.37	3.914
218.88	3.944
219.73	3.972
220.58	3.999
221.26	4.026
222.11	4.053
222.96	4.08
223.81	4.107
224.83	4.131
225.68	4.158
226.53	4.182
227.72	4.202
228.91	4.219
230.27	4.236
231.64	4.25
233.17	4.257
234.7	4.25
236.06	4.24
237.25	4.219
238.44	4.199
239.46	4.179
240.31	4.151
241.16	4.124
241.84	4.097
242.35	4.07
243.03	4.043
243.71	4.016
244.22	3.988
244.9	3.961
245.58	3.934
246.26	3.907
246.94	3.88
247.79	3.853
248.47	3.826
249.49	3.802
250.34	3.778
251.19	3.754
252.21	3.731
253.24	3.71
254.26	3.69
255.45	3.673
256.81	3.663
258.34	3.652
259.87	3.652
264.46	3.639
265.82	3.629
267.35	3.622
268.88	3.615
270.41	3.608
271.94	3.602
273.47	3.591
275.01	3.588
276.54	3.585
278.07	3.581
279.6	3.578
281.13	3.578
282.66	3.574
284.19	3.564
285.72	3.557
287.08	3.54
288.27	3.523
289.46	3.503
290.65	3.486
292.01	3.469
293.03	3.445
294.22	3.425
294.74	3.398
295.42	3.371
295.93	3.344
296.44	3.316
296.95	3.289
297.63	3.262
298.14	3.235
298.65	3.208
299.16	3.181
299.84	3.153
300.52	3.126
301.03	3.099
301.71	3.072
302.22	3.045
302.9	3.018
303.41	2.991
304.09	2.963
304.6	2.936
305.28	2.909
305.79	2.882
306.3	2.855
306.98	2.828
307.66	2.8
308.34	2.773
308.85	2.746
309.36	2.719
309.87	2.692
310.38	2.665
311.06	2.638
311.57	2.607
312.08	2.58
312.42	2.549
312.93	2.519
313.27	2.488
313.78	2.461
314.29	2.434
314.8	2.407
315.48	2.38
316.17	2.352
317.02	2.325
317.7	2.298
318.55	2.274
319.4	2.247
320.59	2.227
321.78	2.206
323.14	2.189
324.5	2.176
326.03	2.169
327.56	2.162
329.09	2.162
330.62	2.162
332.15	2.162
333.68	2.162
335.21	2.166
336.58	2.176
338.11	2.186
339.47	2.196
340.83	2.21
342.19	2.227
343.21	2.247
344.23	2.268
345.08	2.295
345.93	2.318
346.95	2.342
347.63	2.369
348.65	2.39
349.67	2.413
350.52	2.437
351.54	2.458
352.56	2.481
353.58	2.505
354.77	2.526
355.96	2.542
356.98	2.563
358.01	2.587
358.86	2.61
359.88	2.634
360.73	2.658
361.58	2.682
362.6	2.705
363.62	2.729
364.47	2.753
365.49	2.773
366.51	2.797
367.36	2.821
368.38	2.841
369.4	2.862
370.42	2.882
371.44	2.902
372.46	2.926
373.65	2.946
374.67	2.967
375.86	2.984
377.05	3.001
378.24	3.021
379.27	3.041
380.46	3.062
381.48	3.082
382.67	3.103
383.86	3.12
385.05	3.14
386.07	3.16
387.26	3.177
388.45	3.198
389.64	3.218
390.83	3.238
392.02	3.255
393.21	3.272
394.4	3.289
395.59	3.306
396.78	3.323
398.14	3.34
399.33	3.357
400.7	3.371
402.06	3.388
403.42	3.405
404.78	3.418
405.97	3.435
407.33	3.449
408.69	3.466
410.05	3.479
411.41	3.493
412.77	3.503
413.96	3.52
415.32	3.534
416.85	3.544
418.21	3.554
419.57	3.568
421.11	3.571
422.47	3.585
423.83	3.595
425.36	3.602
426.72	3.612
428.25	3.618
429.78	3.622
431.14	3.632
432.67	3.635
434.2	3.639
435.73	3.642
437.26	3.642
438.79	3.646
440.32	3.652
441.86	3.652
443.39	3.652
444.92	3.652
446.45	3.652
447.98	3.652
449.51	3.649
451.04	3.646
452.57	3.646
454.1	3.642
455.63	3.639
457.16	3.629
458.69	3.625
460.22	3.622
461.75	3.612
463.29	3.608
464.82	3.602
466.35	3.595
467.88	3.585
469.41	3.578
470.77	3.564
472.3	3.557
473.66	3.544
475.02	3.53
476.38	3.517
477.74	3.503
479.27	3.493
480.63	3.476
481.99	3.462
483.35	3.449
484.72	3.432
485.91	3.415
487.1	3.398
488.46	3.381
489.82	3.364
491.01	3.347
492.2	3.33
493.39	3.313
494.58	3.293
495.6	3.272
496.62	3.252
497.81	3.232
499.17	3.215
500.36	3.194
501.38	3.174
502.4	3.153
503.42	3.133
504.44	3.113
505.47	3.089
506.49	3.065
507.51	3.045
508.7	3.024
509.72	3.004
510.74	2.984
511.76	2.963
512.78	2.94
513.8	2.919
514.65	2.895
515.67	2.875
516.69	2.851
517.54	2.828
518.56	2.807
519.58	2.783
520.43	2.756
521.28	2.733
522.13	2.709
522.98	2.685
523.83	2.661
524.68	2.634
525.54	2.61
526.39	2.583
527.24	2.559
527.92	2.532
528.77	2.509
529.62	2.485
530.47	2.458
531.15	2.43
532	2.407
532.68	2.38
533.53	2.356
534.21	2.329
535.06	2.301
535.74	2.274
536.42	2.247
537.1	2.22
537.78	2.193
538.63	2.166
539.31	2.139
540.16	2.115
540.67	2.088
541.52	2.064
542.2	2.037
543.05	2.013
543.56	1.986
544.41	1.962
545.09	1.935
545.94	1.911
546.45	1.884
547.31	1.86
547.99	1.833
548.84	1.806
549.86	1.782
