Uv/Vis Spectrum: 1H-indol-3-amine, monohydrochloride
CAS: 57778-93-5
Melting point: dec. 180
Instrument: Specord UV-Vis
Origin: INSTITUTE OF ENERGY PROBLEMS OF CHEMICAL PHYSICS, RAS
Wavelength (nm)	Logarithm epsilon
219.046	4.269
219.228	4.28
220.228	4.301
221.228	4.284
222.228	4.245
223.228	4.199
224.228	4.154
225.228	4.115
226.228	4.086
227.228	4.067
228.228	4.056
229.228	4.05
230.228	4.046
231.228	4.041
232.228	4.035
233.035	4.033
234.035	4.021
235.035	4.017
236.035	4.014
237.035	4.007
238.035	3.992
239.035	3.967
240.035	3.932
241.035	3.887
242.035	3.834
243.035	3.775
244.035	3.713
245.035	3.652
246.035	3.595
246.271	3.583
247.271	3.529
248.271	3.493
249.271	3.471
250.271	3.46
251.271	3.457
252.271	3.46
253.271	3.466
254.271	3.474
255.271	3.482
256.271	3.489
257.271	3.497
258.271	3.505
259.271	3.514
260.271	3.524
261.271	3.535
262.271	3.544
263.838	3.554
264.838	3.56
265.838	3.565
266.838	3.57
267.838	3.574
268.838	3.577
269.838	3.579
270.838	3.581
271.838	3.583
272.838	3.584
273.838	3.586
274.838	3.587
275.838	3.588
276.838	3.588
277.838	3.588
278.838	3.588
279.838	3.587
280.838	3.585
281.838	3.581
282.838	3.576
283.838	3.57
284.838	3.561
285.034	3.557
286.034	3.549
287.034	3.536
288.034	3.517
289.034	3.495
290.034	3.468
291.034	3.44
292.034	3.409
293.034	3.377
294.034	3.345
295.034	3.314
296.034	3.285
297.034	3.257
298.034	3.232
299.034	3.21
300.034	3.191
301.034	3.175
302.034	3.162
303.034	3.152
304.034	3.144
305.034	3.136
306.034	3.128
307.034	3.118
307.894	3.109
308.894	3.1
309.894	3.09
310.894	3.078
311.894	3.064
312.894	3.048
313.894	3.03
314.894	3.008
315.894	2.984
316.894	2.957
317.894	2.927
318.894	2.894
319.894	2.859
320.894	2.822
321.894	2.782
322.894	2.742
323.894	2.7
324.894	2.659
325.894	2.617
326.894	2.577
327.894	2.537
328.894	2.5
329.894	2.465
330.894	2.433
331.894	2.403
332.894	2.377
333.894	2.354
