Uv/Vis Spectrum: 3-Hydroxyflavone
Formula: C15H10O3
CAS: 577-85-5
Melting point: 169.5-170.5
Instrument: Beckman DU
Origin: INSTITUTE OF ENERGY PROBLEMS OF CHEMICAL PHYSICS, RAS
Wavelength (nm)	Logarithm epsilon
217.129	4.1907
217.638	4.18748
217.983	4.18063
218.492	4.17708
218.837	4.17057
219.346	4.16701
219.692	4.1605
220.2	4.15694
220.546	4.15043
221.054	4.14687
221.564	4.14037
222.072	4.13682
222.762	4.13001
225.824	4.13392
226.674	4.14089
227.181	4.14421
227.687	4.15114
228.372	4.16136
228.536	4.16138
228.877	4.17157
229.041	4.17159
229.382	4.18178
229.546	4.18179
229.887	4.19198
230.068	4.192
230.393	4.20219
230.573	4.2022
231.078	4.21241
231.583	4.22261
231.926	4.22625
232.432	4.23285
232.596	4.23287
233.281	4.24309
233.445	4.24311
233.968	4.25004
234.474	4.25697
235.324	4.26033
235.993	4.27055
237.352	4.27429
239.054	4.28101
242.805	4.27811
244.51	4.2714
245.182	4.2682
246.216	4.26142
247.053	4.25462
247.398	4.24811
248.087	4.24457
248.596	4.23807
249.794	4.23131
249.959	4.22445
250.468	4.22123
250.814	4.21438
251.322	4.21116
251.504	4.2043
252.012	4.20107
252.178	4.19421
252.686	4.19098
252.868	4.18412
253.197	4.18055
253.724	4.17045
253.889	4.16392
254.234	4.16035
254.399	4.15381
254.744	4.15024
254.909	4.14371
255.254	4.14014
255.42	4.13328
255.764	4.13004
257.313	4.09285
257.479	4.08599
257.989	4.07588
258.171	4.06935
258.847	4.05238
259.029	4.04552
259.539	4.03542
259.705	4.02528
260.05	4.02204
260.216	4.01157
260.562	4.00506
261.073	3.99135
261.255	3.98482
261.584	3.97797
261.767	3.96784
264.672	3.87641
265.019	3.86629
265.201	3.85615
265.713	3.84244
265.879	3.83231
266.225	3.82219
266.392	3.81205
266.737	3.8052
266.904	3.79179
267.251	3.78167
267.434	3.77153
267.764	3.76141
267.946	3.75128
268.293	3.74116
268.459	3.73102
268.806	3.72057
268.972	3.71043
269.319	3.70031
269.667	3.68364
270.178	3.66994
270.69	3.65295
271.035	3.64644
271.202	3.63597
271.548	3.62585
271.893	3.62261
272.058	3.61575
272.75	3.60238
272.915	3.59552
273.26	3.59228
273.606	3.58544
274.114	3.58221
274.625	3.57211
276.835	3.57561
277.341	3.58254
278.027	3.58915
278.533	3.59608
279.039	3.60301
279.203	3.60303
279.545	3.60994
280.051	3.61655
280.392	3.62673
280.736	3.62677
281.241	3.64058
281.583	3.64749
281.746	3.65078
282.25	3.66426
282.43	3.66428
282.935	3.67449
283.44	3.68829
283.781	3.69848
283.945	3.6985
284.448	3.71558
284.629	3.7156
284.97	3.72579
285.134	3.72581
285.474	3.73927
285.638	3.73929
286.142	3.75637
286.322	3.75639
286.825	3.77347
286.989	3.77349
287.33	3.78695
287.493	3.78697
287.834	3.80076
288.013	3.80406
288.337	3.81785
288.517	3.81786
288.842	3.83133
289.022	3.83134
289.362	3.84481
289.526	3.84483
289.867	3.85862
290.031	3.85863
290.713	3.87901
290.876	3.8823
291.218	3.89249
291.381	3.89251
291.722	3.9063
291.886	3.90632
294.426	3.96422
294.768	3.97441
294.931	3.97443
295.958	3.99484
296.625	4.01194
296.968	4.01885
297.131	4.01887
297.473	4.02906
297.653	4.02908
297.978	4.03926
298.321	4.04257
298.663	4.04949
298.827	4.0495
299.169	4.05642
299.512	4.05973
299.854	4.06991
300.18	4.07355
300.703	4.08016
300.867	4.08017
301.373	4.0871
301.88	4.09043
302.566	4.09737
303.072	4.1043
304.086	4.10768
304.772	4.11463
309.032	4.11178
309.705	4.10497
310.901	4.10148
311.575	4.095
312.099	4.09145
312.609	4.08495
313.281	4.08141
313.971	4.07493
314.823	4.07141
315.496	4.06493
316.693	4.06144
318.054	4.0547
322.657	4.05189
323.671	4.05887
324.866	4.06226
325.535	4.06921
326.222	4.07255
326.728	4.07948
327.234	4.08641
327.921	4.09303
328.933	4.10329
329.277	4.10692
330.126	4.11716
330.452	4.12047
330.974	4.13068
331.301	4.13071
331.823	4.14092
333.342	4.1581
333.849	4.16176
334.355	4.16836
334.699	4.16839
335.384	4.17862
335.728	4.17865
336.397	4.18887
336.741	4.18891
337.41	4.19946
337.934	4.19951
338.44	4.20611
338.946	4.21304
339.617	4.21638
340.139	4.22332
340.99	4.22668
341.66	4.23362
342.51	4.23731
343.361	4.24395
344.375	4.24765
344.718	4.25096
346.928	4.25806
348.121	4.26473
349.48	4.26847
351.005	4.26174
352.381	4.25861
353.399	4.25183
354.415	4.24866
354.924	4.24183
355.957	4.23865
356.63	4.23184
357.319	4.22831
357.828	4.22181
358.501	4.21827
359.026	4.21177
359.535	4.20822
360.044	4.20172
360.389	4.19815
360.735	4.19131
361.407	4.1881
361.753	4.18125
362.098	4.17801
362.607	4.17119
362.952	4.16794
363.281	4.1611
363.806	4.15787
363.971	4.15101
364.48	4.14779
364.645	4.14093
365.17	4.1377
365.336	4.13084
365.681	4.1276
366.356	4.11391
366.701	4.10706
367.046	4.10382
367.392	4.09698
367.721	4.09046
367.904	4.08032
368.248	4.07675
368.414	4.07022
369.106	4.05326
369.271	4.04639
369.617	4.03955
369.783	4.02941
370.128	4.02617
370.295	4.01603
370.64	4.00919
370.806	3.99905
371.152	3.9922
371.335	3.98207
371.664	3.97522
371.848	3.96181
372.193	3.95497
372.36	3.94483
372.706	3.93471
372.872	3.92457
373.219	3.91445
373.385	3.90431
373.732	3.89419
373.899	3.88045
374.244	3.87393
374.429	3.85692
374.758	3.85007
374.942	3.83666
375.287	3.82982
375.454	3.81608
375.802	3.80268
375.97	3.78566
376.316	3.77554
376.484	3.75853
376.831	3.74841
376.999	3.73139
377.347	3.71472
377.532	3.69443
377.863	3.6807
378.049	3.65714
378.38	3.64341
378.565	3.62312
378.914	3.60285
379.084	3.57895
379.433	3.56195
379.601	3.54166
379.95	3.52466
380.119	3.50109
380.467	3.48409
380.653	3.4638
380.985	3.4468
381.17	3.42651
381.502	3.40624
381.688	3.38595
382.036	3.36895
382.204	3.35193
382.552	3.33493
382.722	3.31136
383.07	3.29437
383.24	3.27047
383.587	3.25707
383.773	3.23318
384.104	3.21978
384.291	3.19261
384.622	3.17922
