Uv/Vis Spectrum: o-Methylanisole
Formula: C8H10O
CAS: 578-58-5
Melting point: - 34.1
Boiling point: 171
Instrument: Hilger E3 quartz spectrograph
Origin: INSTITUTE OF ENERGY PROBLEMS OF CHEMICAL PHYSICS, RAS
Wavelength (nm)	Logarithm epsilon
263.68	3.087
264.3	3.097
264.91	3.109
265.45	3.121
266.06	3.133
266.68	3.142
267.21	3.153
267.83	3.164
268.44	3.174
269.05	3.184
269.59	3.196
270.13	3.206
270.66	3.216
271.28	3.225
271.82	3.236
272.28	3.248
272.97	3.25
273.5	3.241
274.12	3.232
274.81	3.229
275.5	3.227
276.19	3.229
276.88	3.234
277.49	3.243
278.11	3.25
278.72	3.245
279.18	3.234
279.64	3.221
279.95	3.206
280.26	3.19
280.72	3.176
280.95	3.159
281.18	3.139
281.41	3.121
281.71	3.102
281.94	3.079
282.1	3.055
282.33	3.03
282.63	3.006
283.02	2.981
