Uv/Vis Spectrum: 8-Aminoquinoline
Formula: C9H8N2
CAS: 578-66-5
Melting point: 128
Boiling point: 196(18)
Instrument: n.i.g.
Origin: INSTITUTE OF ENERGY PROBLEMS OF CHEMICAL PHYSICS, RAS
Wavelength (nm)	Logarithm epsilon
205.966	4.35493
206.239	4.3457
206.785	4.31101
206.823	4.29811
207.647	4.2671
207.68	4.25593
208.862	4.22059
209.141	4.20947
210.759	4.17685
211.039	4.16961
214.073	4.14992
214.421	4.149
218.393	4.14802
219.433	4.15085
219.977	4.15227
220.068	4.15503
223.363	4.15981
224.102	4.15729
227.007	4.13825
227.237	4.13416
228.674	4.09946
229.06	4.0561
229.292	4.05123
230.94	4.01799
230.957	4.01238
231.615	3.98129
231.666	3.96179
231.746	3.99328
232.086	3.94928
233.049	3.91664
233.344	3.90013
234.273	3.86716
234.43	3.85724
235.825	3.82336
236.092	3.81612
239.404	3.82398
239.425	3.81669
239.693	3.84325
239.894	3.85324
240.481	3.88347
240.556	3.89153
241.278	3.92072
241.463	3.93169
242.227	3.96495
242.412	3.97592
243.176	4.00917
243.367	4.01816
244.31	4.04913
244.385	4.05744
245.439	4.09074
245.633	4.09882
246.741	4.13238
247.263	4.14594
248.756	4.18077
248.945	4.19045
249.898	4.21807
250.213	4.22816
251.381	4.25676
251.725	4.26146
251.921	4.26381
252.004	4.26923
253.419	4.2972
253.615	4.30453
254.914	4.33192
255.151	4.33925
255.27	4.34291
255.485	4.34371
255.611	4.3443
255.945	4.35241
256.136	4.35665
257.173	4.36048
257.715	4.36255
259.137	4.36241
262.325	4.32061
262.603	4.30949
263.877	4.27681
264.155	4.26569
265.436	4.23037
265.594	4.22013
266.651	4.18386
266.673	4.17657
267.077	4.15643
267.373	4.14358
268.3	4.10695
268.327	4.09777
269.154	4.06601
269.181	4.05674
269.62	4.02468
269.906	4.01545
270.129	3.98335
270.361	3.97848
270.956	3.93678
271.223	3.92954
271.785	3.90412
271.807	3.89652
272.244	3.86544
272.271	3.85626
272.726	3.8188
272.747	3.81152
273.235	3.77748
273.25	3.77218
274.045	3.73653
274.072	3.72726
274.555	3.69521
274.592	3.6823
275.036	3.64857
275.058	3.64129
275.502	3.60757
275.524	3.59997
276.372	3.56067
276.389	3.55506
276.838	3.51967
276.854	3.51405
277.304	3.47834
277.445	3.47382
278.157	3.4374
278.174	3.43179
278.616	3.39872
278.757	3.3942
279.454	3.36308
279.481	3.35391
280.307	3.32214
280.329	3.31454
281.111	3.28352
281.263	3.27527
282.325	3.23701
282.342	3.2314
283.154	3.20436
283.439	3.19125
284.362	3.1605
284.726	3.15403
286.96	3.12782
288.055	3.12148
292.743	3.11225
293.909	3.11245
296.615	3.13081
296.814	3.13715
298.49	3.16824
299.046	3.17033
300.858	3.15507
300.875	3.14945
304.122	3.13078
304.247	3.13178
304.29	3.13214
305.216	3.13151
305.764	3.12974
306.144	3.11788
309.162	3.19228
309.223	3.11245
309.268	3.18113
309.354	3.17013
309.403	3.12517
309.495	3.19632
309.512	3.13171
310.164	3.22657
310.304	3.22959
310.777	3.23043
311.033	3.23104
311.466	3.23477
311.723	3.23116
312.227	3.23125
312.456	3.23129
312.767	3.20915
313.711	3.17087
314	3.15634
314.546	3.12165
314.791	3.11668
315.729	3.08607
316.025	3.07321
316.944	3.03957
317.559	3.02156
318.504	2.99279
318.801	2.97993
320.091	2.95198
320.364	2.94275
321.635	2.91083
321.651	2.90521
323.154	2.87829
323.427	2.86906
325.094	2.83456
325.321	2.83127
326.952	2.8044
327.219	2.79716
331.738	2.76117
332.211	2.76225
332.466	2.76295
332.897	2.76734
333.452	2.79459
333.65	2.80093
333.768	2.80426
334.242	2.8051
334.482	2.8111
334.498	2.80571
334.843	2.80577
335.096	2.80316
335.621	2.77575
336.137	2.77196
338.293	2.79145
338.619	2.79782
341.787	2.82088
342.598	2.82443
344.729	2.84756
345.408	2.85573
348.055	2.87564
349.47	2.88258
352.636	2.9026
352.988	2.90434
355.641	2.92234
356.334	2.92587
364.762	2.98985
366.182	2.99176
370.068	3.00468
371.027	3.00561
371.53	3.00626
372.225	3.00903
375.927	3.02226
377.002	3.02412
381.854	3.03124
383.015	3.03342
387.177	3.04044
387.88	3.04056
391.505	3.03589
392.363	3.03307
397.296	3.01767
398.35	3.01569
403.786	2.99659
405.352	2.99232
409.947	2.97016
410.762	2.96667
416.552	2.92458
416.9	2.92366
420.219	2.89507
421.193	2.88672
424.645	2.85707
424.904	2.85257
428.329	2.82192
429.073	2.81211
432.028	2.78148
433.362	2.76789
436.435	2.73519
437.202	2.72737
439.772	2.70032
440.605	2.6921
443.481	2.6569
443.87	2.65598
444.045	2.65567
444.54	2.64814
447.922	2.6136
447.933	2.60972
450.158	2.58649
451.465	2.56909
453.506	2.5483
455.371	2.52577
