Uv/Vis Spectrum: 9,l0-Dihydro-9-oxoacridine
Formula: C13H9NO
CAS: 578-95-0
Melting point: 350
Instrument: Zeiss PMQ II
Origin: INSTITUTE OF ENERGY PROBLEMS OF CHEMICAL PHYSICS, RAS
Wavelength (nm)	Logarithm epsilon
223.12	3.823
223.22	3.825
223.33	3.827
223.43	3.829
223.54	3.834
224.07	3.853
224.61	3.876
225.14	3.897
225.68	3.916
226.23	3.937
226.77	3.952
227.32	3.976
227.87	3.997
228.42	4.02
228.98	4.039
229.54	4.06
230.1	4.082
230.66	4.103
231.23	4.124
231.8	4.147
232.37	4.166
232.95	4.19
233.52	4.211
234.11	4.234
234.69	4.249
235.28	4.27
235.87	4.29
236.46	4.306
237.05	4.319
237.65	4.33
238.25	4.345
238.86	4.366
239.47	4.391
240.08	4.417
240.69	4.453
241.31	4.485
241.93	4.519
242.55	4.548
243.18	4.578
243.81	4.608
244.44	4.631
245.08	4.652
245.72	4.676
246.36	4.695
247.01	4.716
247.66	4.726
248.31	4.737
248.97	4.745
249.63	4.75
250.3	4.756
250.96	4.758
251.63	4.76
252.31	4.767
252.99	4.771
253.67	4.775
254.35	4.777
255.04	4.771
255.74	4.752
256.43	4.731
257.13	4.703
257.84	4.676
258.55	4.654
259.26	4.642
259.98	4.629
260.7	4.62
261.42	4.61
262.15	4.593
262.88	4.563
263.62	4.527
264.36	4.495
265.1	4.453
265.85	4.415
266.6	4.383
267.36	4.351
268.12	4.326
268.89	4.298
269.66	4.281
270.44	4.264
271.21	4.239
272	4.207
272.79	4.164
273.58	4.111
274.38	4.046
275.18	3.978
275.99	3.899
276.8	3.874
277.62	3.825
278.44	3.78
279.26	3.751
280.09	3.721
280.93	3.7
281.77	3.683
282.62	3.668
283.47	3.651
284.33	3.638
285.19	3.628
286.05	3.615
286.93	3.607
287.8	3.596
288.69	3.587
289.58	3.577
290.47	3.573
291.37	3.568
292.27	3.575
293.18	3.577
294.1	3.577
295.02	3.577
295.95	3.568
296.88	3.556
297.82	3.537
298.77	3.507
299.72	3.475
300.68	3.443
301.64	3.403
302.61	3.365
303.59	3.331
304.57	3.291
305.56	3.261
306.56	3.25
307.56	3.24
308.57	3.231
309.58	3.221
310.6	3.187
311.63	3.106
312.67	3.015
313.71	2.928
314.76	2.847
315.81	2.775
316.88	2.72
317.95	2.682
319.03	2.659
320.11	2.646
321.2	2.644
322.3	2.646
323.41	2.663
324.53	2.707
325.65	2.75
326.78	2.786
327.92	2.818
329.07	2.845
330.22	2.873
331.38	2.898
332.56	2.926
333.73	2.953
334.92	2.987
336.12	3.023
337.29	3.058
338.43	3.089
339.79	3.123
341.46	3.161
342.23	3.178
343.48	3.214
344.74	3.248
346.01	3.284
347.28	3.32
348.57	3.354
349.86	3.386
351.17	3.422
352.49	3.456
353.81	3.492
355.15	3.528
356.49	3.562
357.85	3.598
359.21	3.638
360.59	3.681
361.98	3.71
363.37	3.732
364.78	3.744
366.2	3.759
367.63	3.772
369.08	3.785
370.53	3.802
371.99	3.823
373.47	3.846
374.42	3.868
375.26	3.892
376.46	3.927
377.76	3.952
378.98	3.973
380.19	3.994
381.03	4.001
381.63	3.997
382.58	3.984
384.14	3.965
385.72	3.946
387.3	3.925
388.9	3.918
390.52	3.92
392.14	3.931
393.79	3.957
395.44	3.988
397.11	4.012
398.79	4.022
400.49	4.016
402.2	3.995
403.33	3.956
404.34	3.907
405.4	3.833
406.35	3.744
407.13	3.666
407.84	3.605
408.68	3.534
409.32	3.476
409.91	3.431
410.17	3.412
410.45	3.392
411.34	3.32
411.94	3.257
412.79	3.159
413.51	3.081
414.24	3.006
414.97	2.938
415.7	2.847
416.44	2.758
417.18	2.684
417.89	2.608
418.61	2.52
419.41	2.451
