Uv/Vis Spectrum: 2-butyl-1-ethenyl-1H-pyrrole
Formula: C10H15N
CAS: 57807-51-9
Boiling point: 74-75 /5mm
Instrument: Pye Unicam SP 8000
Origin: INSTITUTE OF ENERGY PROBLEMS OF CHEMICAL PHYSICS, RAS
Wavelength (nm)	Logarithm epsilon
199.241	4.046
199.448	4.048
199.655	4.048
199.719	4.048
200.719	4.055
201.719	4.053
202.719	4.043
203.719	4.027
204.719	4.006
205.719	3.983
206.719	3.958
207.719	3.933
207.732	3.933
208.732	3.91
209.732	3.887
210.732	3.865
211.732	3.844
212.732	3.824
213.732	3.806
214.732	3.789
215.732	3.773
216.732	3.759
217.732	3.747
218.732	3.736
219.732	3.726
220.732	3.718
221.732	3.711
222.732	3.705
223.732	3.701
224.732	3.699
225.67	3.7
226.67	3.703
227.67	3.707
228.67	3.713
229.67	3.722
230.67	3.733
231.67	3.748
232.67	3.766
233.67	3.786
234.67	3.807
235.67	3.829
236.67	3.85
237.67	3.871
238.67	3.891
239.67	3.909
240.67	3.926
241.575	3.942
242.575	3.96
243.575	3.977
244.575	3.994
245.575	4.012
246.575	4.03
247.575	4.049
248.575	4.069
249.575	4.087
250.575	4.103
251.575	4.115
251.621	4.116
252.621	4.121
253.621	4.114
254.621	4.1
255.621	4.081
256.621	4.059
257.621	4.037
258.621	4.014
259.621	3.993
260.621	3.971
261.621	3.949
262.51	3.928
263.51	3.903
264.51	3.878
265.51	3.855
266.51	3.832
267.51	3.81
268.51	3.789
269.51	3.769
270.51	3.75
271.51	3.731
272.51	3.713
273.51	3.697
274.342	3.684
