Uv/Vis Spectrum: 5-Hydroxyquinoline
Formula: C9H7NO
CAS: 578-67-6
Melting point: 224
Instrument: Zeiss PMQ II
Origin: INSTITUTE OF ENERGY PROBLEMS OF CHEMICAL PHYSICS, RAS
Wavelength (nm)	Logarithm epsilon
200.31	4.534
200.4	4.53
200.48	4.528
200.57	4.526
200.66	4.524
200.74	4.521
200.83	4.519
200.91	4.517
201	4.515
201.09	4.513
201.17	4.511
201.26	4.509
201.35	4.506
201.43	4.504
201.52	4.502
201.6	4.5
201.69	4.498
201.78	4.496
201.87	4.494
201.95	4.492
202.04	4.489
202.39	4.481
202.91	4.46
203.44	4.432
203.97	4.407
204.51	4.383
205.04	4.358
205.58	4.334
206.13	4.313
206.67	4.294
207.22	4.272
207.77	4.249
208.33	4.219
208.88	4.19
209.44	4.16
210.01	4.141
210.57	4.121
211.14	4.104
211.71	4.092
212.29	4.077
212.87	4.066
213.45	4.056
214.03	4.045
214.62	4.036
215.21	4.03
215.81	4.021
216.41	4.013
217.01	4.004
217.61	3.998
218.22	3.992
218.83	3.983
219.45	3.979
220.06	3.97
220.69	3.964
221.31	3.96
221.94	3.953
222.57	3.949
223.21	3.951
223.85	3.96
224.49	3.97
225.14	3.979
225.79	3.99
226.44	3.99
227.1	4.007
227.76	4.028
228.43	4.051
229.1	4.077
229.77	4.107
230.45	4.136
231.13	4.17
231.82	4.209
232.51	4.236
233.2	4.272
233.9	4.313
234.6	4.351
235.31	4.385
236.02	4.419
236.74	4.453
237.46	4.487
238.18	4.517
238.91	4.541
239.64	4.568
240.38	4.592
241.12	4.611
241.87	4.623
242.62	4.632
243.38	4.632
244.14	4.621
244.9	4.6
245.67	4.56
246.45	4.489
247.23	4.424
248.01	4.341
248.8	4.23
249.6	4.117
250.4	3.996
251.2	3.868
252.01	3.787
252.83	3.719
253.65	3.636
254.48	3.558
255.31	3.505
256.14	3.445
256.99	3.392
257.83	3.341
258.69	3.29
259.55	3.251
260.41	3.22
261.28	3.188
262.16	3.164
263.04	3.139
263.93	3.12
264.83	3.105
265.73	3.088
266.64	3.077
267.55	3.066
268.47	3.058
269.39	3.056
270.33	3.054
271.27	3.054
272.21	3.056
273.16	3.058
274.12	3.064
275.09	3.073
276.06	3.079
277.04	3.086
278.02	3.096
279.02	3.107
280.02	3.117
281.02	3.132
282.04	3.147
283.01	3.159
284.09	3.173
285.13	3.185
286.16	3.2
287.22	3.212
288.58	3.227
289.35	3.234
290.43	3.247
291.51	3.262
292.6	3.277
293.7	3.29
294.81	3.307
295.93	3.32
297.05	3.33
298.19	3.341
299.33	3.358
300.48	3.368
301.64	3.379
302.81	3.39
303.99	3.4
305.18	3.411
306.38	3.419
307.58	3.426
308.8	3.43
310.02	3.432
311.26	3.432
312.5	3.439
313.76	3.443
315.02	3.449
316.3	3.454
317.59	3.458
318.88	3.46
320.19	3.462
321.51	3.464
322.84	3.464
324.18	3.46
325.53	3.458
326.89	3.456
328.26	3.449
329.65	3.439
331.05	3.43
332.45	3.417
333.9	3.403
335.31	3.385
336.6	3.37
338.17	3.344
339.68	3.311
341.17	3.279
342.66	3.245
344.17	3.205
345.7	3.164
347.23	3.12
348.78	3.071
349.86	3.033
350.91	3
352.17	2.965
353.52	2.922
355.11	2.879
356.75	2.817
358.38	2.745
360.04	2.662
361.7	2.592
363.39	2.522
365.08	2.447
366.8	2.35
368.53	2.237
