Uv/Vis Spectrum: Acetamide, N-methyl-N-phenyl-
Formula: C9H11NO
CAS: 579-10-2
Melting point: 101-102
Instrument: Unicam SP 800
Origin: INSTITUTE OF ENERGY PROBLEMS OF CHEMICAL PHYSICS, RAS
Wavelength (nm)	Logarithm epsilon
201.68	3.153
201.76	3.171
201.91	3.199
202.18	3.246
202.35	3.276
202.52	3.307
202.68	3.338
202.85	3.369
203.02	3.399
203.19	3.43
203.36	3.461
203.52	3.491
203.69	3.522
203.86	3.553
204.03	3.584
204.19	3.614
204.36	3.645
204.53	3.676
204.7	3.706
205.03	3.737
205.2	3.768
205.37	3.799
205.54	3.829
205.87	3.86
206.21	3.891
206.71	3.921
207.55	3.945
208.89	3.962
210.4	3.959
211.58	3.939
212.42	3.915
213.25	3.891
214.09	3.863
214.6	3.836
215.44	3.812
216.27	3.788
217.62	3.771
219.13	3.761
220.64	3.761
222.15	3.761
223.66	3.761
225.17	3.764
226.68	3.768
228.19	3.764
229.7	3.761
231.04	3.747
232.38	3.73
233.56	3.713
234.73	3.693
235.74	3.672
236.74	3.648
237.75	3.625
238.59	3.601
239.6	3.577
240.44	3.549
241.11	3.522
241.95	3.498
242.62	3.471
243.29	3.444
244.13	3.42
244.8	3.392
245.47	3.365
246.14	3.338
246.81	3.31
247.48	3.283
247.99	3.256
248.66	3.229
249.16	3.201
249.83	3.174
250.33	3.147
251.01	3.119
251.51	3.092
252.01	3.065
252.52	3.037
253.19	3.01
253.86	2.983
254.53	2.956
255.2	2.928
255.7	2.901
256.37	2.874
257.05	2.846
257.72	2.819
258.39	2.792
258.89	2.773
259.73	2.741
260.23	2.713
260.9	2.686
261.74	2.659
262.25	2.631
263.09	2.604
263.76	2.577
264.43	2.549
265.1	2.522
265.6	2.495
266.27	2.467
266.94	2.44
267.45	2.413
268.12	2.386
268.62	2.358
269.13	2.328
269.68	2.3
270.51	2.253
271.31	2.205
271.81	2.171
272.48	2.123
273.15	2.075
273.82	2.024
274.49	1.969
275.17	1.918
275.84	1.863
276.51	1.802
277.18	1.747
277.85	1.682
278.52	1.611
279.19	1.525
279.86	1.45
280.54	1.379
281.21	1.304
281.88	1.232
282.55	1.133
283.22	1.048
283.89	0.959
284.56	0.856
285.23	0.754
285.9	0.665
286.58	0.583
287.25	0.491
