Uv/Vis Spectrum: 2'-Methoxyacetophenone
Formula: C9H10O2
CAS: 579-74-8
Instrument: n.i.g.
Origin: INSTITUTE OF ENERGY PROBLEMS OF CHEMICAL PHYSICS, RAS
Wavelength (nm)	Logarithm epsilon
365.969	1.3255
365.058	1.37908
364.308	1.42154
363.678	1.45595
363.126	1.48537
362.613	1.51283
362.098	1.54142
361.974	1.50159
361.666	1.50159
361.542	1.57418
361.542	1.57418
361.358	1.5016
361.051	1.5016
360.952	1.59593
360.229	1.63304
359.498	1.6598
359.498	1.6598
358.609	1.70824
357.526	1.75555
356.49	1.80231
355.735	1.84906
355.735	1.84906
355.199	1.86465
354.265	1.9006
353.104	1.95059
351.884	2.00828
350.767	2.06737
350.767	2.06737
350.292	2.08367
349.522	2.11352
348.531	2.15378
347.39	2.20129
346.171	2.25289
344.942	2.30544
343.771	2.35578
342.723	2.40075
341.863	2.43721
341.254	2.462
340.96	2.49249
340.96	2.49249
340.96	2.48583
340.959	2.47896
340.958	2.47197
340.958	2.47197
340.687	2.496
340.415	2.49951
340.143	2.50301
340.143	2.50301
338.763	2.56303
337.445	2.62026
336.207	2.6739
335.061	2.72315
334.024	2.76722
333.11	2.80528
332.334	2.83656
331.711	2.86023
331.256	2.87551
330.983	2.88158
330.983	2.88158
330.357	2.91796
329.524	2.95419
328.524	2.99024
327.395	3.0261
326.176	3.06176
324.906	3.09721
323.62	3.13243
322.354	3.1674
321.144	3.20212
320.022	3.23656
319.021	3.27072
319.021	3.27072
317.491	3.30628
315.977	3.34185
314.477	3.37742
314.477	3.37742
312.855	3.39239
310.911	3.41393
307.876	3.44462
307.876	3.44462
305.786	3.44682
303.776	3.44245
301.844	3.4324
299.993	3.41755
298.224	3.39878
296.536	3.37698
294.931	3.35302
293.409	3.32779
291.973	3.30217
290.621	3.27705
289.355	3.25329
289.355	3.25329
287.944	3.2194
286.37	3.18203
284.997	3.14204
284.176	3.10024
284.176	3.10024
283.986	3.10025
283.796	3.10025
283.607	3.10026
283.607	3.10026
281.816	3.04522
280.441	3.00055
279.387	2.96464
278.564	2.93586
277.889	2.91258
277.276	2.89318
277.276	2.89318
276.399	2.86071
275.49	2.82723
274.566	2.79292
273.646	2.758
272.745	2.72265
271.882	2.68707
271.072	2.65147
270.33	2.61605
270.33	2.61605
268.512	2.62371
267.758	2.64396
267.253	2.67293
266.199	2.70675
266.199	2.70675
265.253	2.77526
264.721	2.81284
264.362	2.84696
264.362	2.84696
264.029	2.86743
263.753	2.89024
263.499	2.90404
263.499	2.90404
262.936	2.96437
262.483	3.01179
262.113	3.04988
261.802	3.08222
261.525	3.11238
261.258	3.14392
260.976	3.18043
260.655	3.22547
260.655	3.22547
259.812	3.25735
259.355	3.30128
258.904	3.34624
258.086	3.38121
258.086	3.38121
257.609	3.41395
257.109	3.44776
256.579	3.48225
256.012	3.51705
255.4	3.55178
254.735	3.58607
254.011	3.61953
253.221	3.65179
252.359	3.68247
251.418	3.7112
250.394	3.73759
249.279	3.76127
248.07	3.78187
246.762	3.799
246.762	3.799
246.205	3.8
245.641	3.80089
245.075	3.80156
245.075	3.80156
243.849	3.77927
242.042	3.75256
240.729	3.73962
240.729	3.73962
239.622	3.70541
238.525	3.67106
237.439	3.63661
236.362	3.60212
236.362	3.60212
235.769	3.57705
235.146	3.54922
234.485	3.51972
233.779	3.48963
233.023	3.46003
232.209	3.43202
231.332	3.40667
230.385	3.38508
229.364	3.36832
228.263	3.35749
227.077	3.35367
227.077	3.35367
226.316	3.3787
225.578	3.40897
224.241	3.4704
224.241	3.4704
223.947	3.49408
223.637	3.52001
223.309	3.54794
222.963	3.57762
222.599	3.60881
222.215	3.64126
221.812	3.67472
221.39	3.70895
220.947	3.7437
220.484	3.77872
220	3.81376
219.494	3.84858
218.968	3.88293
218.419	3.91657
217.848	3.94924
217.255	3.98071
216.639	4.01072
216	4.03902
215.339	4.06537
214.655	4.08953
213.947	4.11123
213.217	4.13025
212.463	4.14633
211.685	4.15923
210.885	4.16869
210.885	4.16869
209.961	4.16873
209.043	4.16876
208.126	4.1688
208.126	4.1688
206.957	4.15282
205.91	4.1359
204.937	4.11745
203.995	4.09687
203.04	4.07356
202.03	4.04694
