Uv/Vis Spectrum: 6-Quinolinamine
Formula: C9H8N2
CAS: 580-15-4
Melting point: 114
Boiling point: 187 (12)
Instrument: n.i.g.
Origin: INSTITUTE OF ENERGY PROBLEMS OF CHEMICAL PHYSICS, RAS
Wavelength (nm)	Logarithm epsilon
222.8	4.288
223.19	4.285
223.57	4.282
223.96	4.28
224.34	4.28
225.12	4.256
226.27	4.248
227.43	4.248
228.59	4.254
229.74	4.262
230.9	4.277
232.06	4.288
233.21	4.317
234.37	4.352
235.53	4.372
236.68	4.406
237.84	4.435
239	4.467
240.15	4.501
241.31	4.533
242.47	4.562
243.62	4.582
244.78	4.594
245.94	4.602
247.1	4.608
248.25	4.608
249.41	4.597
250.57	4.55
251.72	4.516
252.88	4.484
254.04	4.427
255.19	4.392
256.35	4.337
257.51	4.297
258.66	4.239
259.82	4.196
260.98	4.141
262.13	4.095
263.29	4.035
264.45	4.012
265.6	3.991
266.76	3.939
267.92	3.902
269.07	3.85
270.23	3.818
271.39	3.769
272.54	3.738
273.7	3.706
274.86	3.677
276.02	3.669
277.17	3.666
278.33	3.666
279.49	3.663
280.64	3.66
281.8	3.66
282.96	3.657
284.11	3.657
285.27	3.66
286.43	3.657
287.58	3.651
288.74	3.646
289.9	3.643
291.05	3.64
292.21	3.637
293.37	3.628
294.52	3.62
295.68	3.602
296.84	3.571
297.99	3.545
299.15	3.519
300.31	3.481
301.47	3.455
302.62	3.429
303.78	3.392
304.94	3.369
306.09	3.343
307.25	3.311
308.41	3.285
309.56	3.265
310.72	3.239
311.88	3.216
313.03	3.187
314.19	3.182
315.35	3.179
316.5	3.182
317.66	3.193
318.82	3.21
319.97	3.245
321.13	3.271
322.29	3.277
323.44	3.303
324.6	3.314
325.76	3.337
326.92	3.363
328.07	3.38
329.23	3.398
330.39	3.418
331.54	3.432
332.7	3.45
333.86	3.47
335.01	3.484
336.17	3.499
337.33	3.522
338.48	3.53
339.64	3.542
340.8	3.556
341.95	3.573
343.11	3.588
344.27	3.594
345.42	3.608
346.58	3.622
347.74	3.631
348.89	3.643
350.05	3.646
351.21	3.651
352.37	3.654
353.52	3.657
354.68	3.66
355.84	3.663
356.99	3.663
358.15	3.663
359.31	3.657
360.46	3.657
361.62	3.651
362.78	3.646
363.93	3.637
365.09	3.631
366.25	3.625
367.4	3.62
368.56	3.611
369.72	3.599
370.87	3.585
372.03	3.573
373.19	3.559
374.34	3.548
375.5	3.53
376.66	3.513
377.81	3.496
378.97	3.476
380.13	3.461
381.29	3.441
382.44	3.421
383.6	3.392
384.76	3.366
385.91	3.346
387.07	3.32
388.23	3.291
389.38	3.262
390.54	3.231
391.7	3.193
392.85	3.164
394.01	3.133
395.17	3.089
396.32	3.055
397.48	3.023
398.64	2.977
399.79	2.945
400.95	2.888
402.11	2.867
403.26	2.844
404.42	2.793
405.58	2.758
406.74	2.718
407.89	2.671
409.05	2.631
410.21	2.588
411.36	2.55
412.52	2.51
413.68	2.476
414.83	2.444
415.99	2.403
417.15	2.378
418.3	2.349
419.46	2.317
420.62	2.294
