Uv/Vis Spectrum: [1,1'-Biphenyl]-3-ol
Formula: C12H10O
CAS: 580-51-8
Melting point: 78
Boiling point: > 300
Instrument: Spectrophotometer SF-16
Origin: INSTITUTE OF ENERGY PROBLEMS OF CHEMICAL PHYSICS, RAS
Wavelength (nm)	Logarithm epsilon
210	4.42
211	4.4
212	4.38
213	4.36
214	4.35
215	4.33
216	4.32
217	4.3
218	4.29
219	4.27
220	4.25
221	4.24
222	4.22
223	4.21
224	4.18
225	4.16
226	4.13
227	4.11
228	4.08
229	4.07
230	4.06002
231	4.05
232	4.03
233	4.02
234	4.01
235	4.01
236	4.01
237	4.01
238	4.02
239	4.03
240	4.04001
241	4.06
242	4.07
243	4.09
244	4.1
245	4.11
246	4.13
247	4.13
248	4.13
249	4.13
250	4.13001
251	4.12
252	4.12
253	4.11
254	4.09
255	4.07
256	4.05
257	4.03
258	4.02
259	3.98
260	3.98
261	3.94
262	3.89
263	3.85
264	3.81
265	3.77
266	3.74
267	3.71
268	3.69
269	3.66
270	3.66
271	3.65
272	3.63
273	3.62
274	3.62
275	3.61
276	3.61
277	3.6
278	3.6
279	3.6
280	3.59001
281	3.59
282	3.58
283	3.57
284	3.56
285	3.55
286	3.54
287	3.53
288	3.52
289	3.5
290	3.48001
291	3.46
292	3.45
293	3.43
294	3.41
295	3.38
296	3.34
297	3.28
298	3.22
299	3.19
