Uv/Vis Spectrum: Caffeine
Formula: C8H10N4O2
CAS: 58-08-2
Melting point: 238
Boiling point: sub 90
Instrument: n.i.g.
Origin: INSTITUTE OF ENERGY PROBLEMS OF CHEMICAL PHYSICS, RAS
Wavelength (nm)	Logarithm epsilon
219.778	3.89584
220.253	3.94235
220.791	3.98849
221.262	4.02718
221.476	4.03964
221.592	4.0461
221.63	4.05717
221.661	4.06289
221.881	4.06747
222	4.06995
222.041	4.07775
222.072	4.08183
222.23	4.0876
222.564	4.10243
222.574	4.09287
222.656	4.08732
222.775	4.11722
222.872	4.12461
223.15	4.13164
223.29	4.13497
223.345	4.14071
223.364	4.14358
223.852	4.16009
224.429	4.1844
224.662	4.19019
224.767	4.19309
224.876	4.20118
224.92	4.205
225.643	4.22879
226.248	4.2463
226.5	4.25501
226.744	4.25995
227.02	4.26237
227.147	4.26335
227.385	4.2622
227.493	4.26181
227.734	4.25628
227.844	4.25374
228.259	4.21913
228.744	4.18226
229.713	4.11155
229.795	4.11035
229.959	4.10794
230.079	4.10867
230.302	4.10968
230.763	4.12705
231.03	4.14058
231.149	4.14306
231.369	4.14764
231.553	4.15701
232.015	4.17851
232.494	4.19224
233.164	4.21445
233.358	4.21937
234.236	4.24545
234.356	4.2467
234.578	4.24882
234.94	4.24887
235.248	4.24739
235.477	4.23888
235.935	4.22224
235.977	4.21939
236.043	4.21368
236.187	4.20965
236.457	4.20194
236.821	4.18618
237.858	4.14428
237.944	4.13817
238.115	4.12595
238.375	4.11949
238.801	4.10407
238.923	4.10167
239.15	4.09722
239.55	4.09665
240.327	4.09595
240.806	4.10509
241.746	4.12337
241.921	4.12535
242.249	4.12884
242.49	4.12879
242.92	4.12577
243.33	4.1116
244.127	4.0836
244.163	4.08117
244.213	4.07667
244.336	4.07427
244.563	4.06982
244.988	4.07151
245.471	4.07541
245.874	4.0816
246.734	4.09461
246.936	4.09398
247.323	4.09315
247.391	4.09046
247.653	4.0863
247.793	4.08204
248.093	4.06598
248.271	4.06482
248.602	4.06286
248.829	4.05763
249.283	4.04753
249.52	4.0476
249.972	4.04773
250.145	4.05188
250.47	4.06016
250.63	4.06254
250.951	4.06685
251.139	4.07545
251.445	4.08418
251.586	4.08543
251.868	4.08758
252.598	4.0878
254.057	4.08824
254.2	4.08707
254.485	4.0851
254.665	4.08106
255.001	4.07298
255.003	4.07065
255.006	4.06644
255.233	4.06131
255.686	4.05151
256.182	4.03437
256.723	4.01951
256.946	4.02027
257.391	4.02135
257.53	4.02495
257.809	4.0317
257.945	4.04031
258.216	4.05718
258.33	4.05966
258.535	4.06423
258.6	4.07052
258.944	4.08645
259.276	4.08897
260.277	4.09339
260.519	4.09642
262.132	4.10745
262.329	4.11206
263.031	4.12491
263.987	4.13898
265.878	4.16667
266.1	4.16907
266.542	4.17342
266.745	4.17766
267.705	4.19095
267.825	4.19168
268.048	4.19269
268.303	4.19684
268.789	4.20478
269.345	4.21028
270.377	4.22407
270.518	4.22481
270.801	4.22584
271.163	4.23045
271.885	4.23966
272.188	4.24219
272.792	4.24689
273.218	4.24702
274.069	4.24728
274.595	4.2343
277.489	4.17346
277.696	4.1671
278.091	4.15482
278.269	4.15254
278.603	4.14844
278.665	4.14559
278.771	4.1399
279.317	4.13118
280.228	4.11661
280.29	4.11419
280.395	4.10971
280.538	4.10854
280.823	4.10657
281.148	4.09892
283.64	4.05302
283.893	4.04546
284.488	4.03118
284.635	4.02317
284.931	4.00759
285.172	3.98314
285.654	3.93459
286.181	3.89606
287.071	3.83488
287.345	3.81444
287.586	3.81003
287.694	3.808
287.76	3.79996
287.784	3.79616
288.85	3.7401
289.01	3.72863
290.011	3.66782
290.411	3.64398
290.804	3.58954
291.181	3.5354
291.408	3.48207
291.576	3.43377
291.594	3.4165
291.685	3.39909
291.826	3.36714
292.007	3.32384
292.216	3.2724
292.442	3.21602
292.675	3.15789
292.903	3.10123
293.115	3.04922
293.299	3.00509
293.445	2.97202
293.592	2.94829
293.884	2.90083
294.174	2.85336
294.459	2.8059
294.6	2.78216
294.981	2.73239
295.357	2.68271
