Uv/Vis Spectrum: 3-Quinolinamine
Formula: C9H8N2
CAS: 580-17-6
Melting point: 93-95
Instrument: n.i.g.
Origin: INSTITUTE OF ENERGY PROBLEMS OF CHEMICAL PHYSICS, RAS
Wavelength (nm)	Logarithm epsilon
210	4.577
210.33	4.574
210.65	4.572
210.98	4.567
211.96	4.543
212.93	4.506
213.91	4.48
214.89	4.451
215.87	4.419
216.85	4.37
217.83	4.333
218.8	4.291
219.78	4.249
220.76	4.246
221.74	4.249
222.72	4.264
223.7	4.275
224.67	4.296
225.65	4.312
226.63	4.325
227.61	4.33
228.59	4.351
229.57	4.37
230.54	4.385
232.5	4.419
233.48	4.43
234.46	4.443
235.43	4.456
236.41	4.469
237.39	4.48
238.37	4.49
239.35	4.493
240.33	4.493
241.3	4.493
242.28	4.49
243.26	4.48
244.24	4.456
245.22	4.433
246.2	4.398
247.17	4.37
248.15	4.338
249.13	4.306
250.11	4.264
251.09	4.228
252.07	4.204
253.04	4.186
254.02	4.144
255	4.088
255.98	4.054
256.96	4.015
257.93	3.96
258.91	3.92
259.89	3.873
260.87	3.855
261.85	3.839
262.83	3.823
263.8	3.813
264.78	3.802
265.76	3.792
266.74	3.781
267.72	3.773
268.7	3.763
269.67	3.752
270.65	3.747
271.63	3.734
272.61	3.726
273.59	3.713
274.57	3.708
275.54	3.694
276.52	3.681
277.5	3.668
278.48	3.655
279.46	3.637
280.43	3.616
281.41	3.568
282.39	3.534
283.37	3.492
284.35	3.45
285.33	3.411
286.3	3.371
287.28	3.321
288.26	3.282
289.24	3.24
290.22	3.187
291.2	3.137
292.17	3.119
293.15	3.077
294.13	3.03
295.11	2.99
296.09	2.964
297.07	2.94
298.04	2.94
299.02	2.954
300	2.964
300.98	2.988
301.96	3.014
302.93	3.038
303.91	3.061
304.89	3.082
305.87	3.103
306.85	3.124
307.83	3.148
308.8	3.177
309.78	3.195
310.76	3.208
311.74	3.229
312.72	3.266
313.7	3.285
314.67	3.311
315.65	3.337
316.63	3.358
317.61	3.384
318.59	3.408
319.57	3.437
320.54	3.466
321.52	3.482
322.5	3.503
323.48	3.521
324.46	3.534
325.43	3.558
326.41	3.571
327.39	3.579
328.37	3.589
329.35	3.602
330.33	3.61
331.3	3.616
332.28	3.626
333.26	3.634
334.24	3.639
335.22	3.644
336.2	3.65
337.17	3.652
338.15	3.66
339.13	3.663
340.11	3.663
341.09	3.665
342.07	3.665
343.04	3.665
344.02	3.665
345	3.663
345.98	3.66
346.96	3.652
347.93	3.647
348.91	3.639
349.89	3.629
350.87	3.621
351.85	3.6
352.83	3.589
353.8	3.576
354.78	3.56
355.76	3.545
356.74	3.529
357.72	3.511
358.7	3.489
359.67	3.461
360.65	3.437
361.63	3.413
362.61	3.387
363.59	3.363
364.57	3.324
365.54	3.287
366.52	3.256
367.5	3.208
368.48	3.166
369.46	3.119
370.43	3.051
371.41	3.006
372.39	2.94
373.37	2.883
374.35	2.867
375.33	2.822
376.3	2.736
377.28	2.665
378.26	2.607
379.24	2.52
380.22	2.478
381.2	2.426
382.17	2.363
