Uv/Vis Spectrum: 2-Bromonaphthalene
Formula: C10H7Br
CAS: 580-13-2
Melting point: 59
Boiling point: 281.5
Instrument: n.i.g.
Origin: INSTITUTE OF ENERGY PROBLEMS OF CHEMICAL PHYSICS, RAS
Wavelength (nm)	Logarithm epsilon
370	4.1
371	4.08
372	4.07
373	4.05
374	4.03
375	4.03
376	4.02
377	4
378	3.98
379	3.97
380	3.95
381	3.94
382	3.93
383	3.92
384	3.9
385	3.89
386	3.88
387	3.87
388	3.86
389	3.85
390	3.84
391	3.82
392	3.82
393	3.81
394	3.81
395	3.79
396	3.78
397	3.77
398	3.77
399	3.75
400	3.75
401	3.74
402	3.74
403	3.74
404	3.73
405	3.73
406	3.73
407	3.73
408	3.72
409	3.72
410	3.73
411	3.73
412	3.74
413	3.73
414	3.72
415	3.72
416	3.71
417	3.69
418	3.69
419	3.68
420	3.67
421	3.67
422	3.66
423	3.66
424	3.65
425	3.65
426	3.66
427	3.64
428	3.64
429	3.63
430	3.64
431	3.62
432	3.63
433	3.62
434	3.63
435	3.62
436	3.62
437	3.6
438	3.6
439	3.6
440	3.6
441	3.59
442	3.59
443	3.57
444	3.58
445	3.56
446	3.56
447	3.54
448	3.53
449	3.52
450	3.52
451	3.5
452	3.49
453	3.48
454	3.48
455	3.47
456	3.48
457	3.47
458	3.47
459	3.46
460	3.45
461	3.45
462	3.44
463	3.44
464	3.43
465	3.44
466	3.43
467	3.41
468	3.42
469	3.41
470	3.42
471	3.4
472	3.4
473	3.39
474	3.39
475	3.39
476	3.36
477	3.34
478	3.32
479	3.32
480	3.31
481	3.28
482	3.28
483	3.28
484	3.25
485	3.26
486	3.26
487	3.22
488	3.23
489	3.22
490	3.22
491	3.21
492	3.21
493	3.23
494	3.2
495	3.21
496	3.2
497	3.17
498	3.16
499	3.18
500	3.16
501	3.17
502	3.15
503	3.12
504	3.13
505	3.14
506	3.14
507	3.12
508	3.1
509	3.11
510	3.11
511	3.11
512	3.08
513	3.07
514	3.08
515	3.09
516	3.1
517	3.08
518	3
519	3.02
520	3.03
521	3.03
522	3.01
523	3
524	3.01
525	3.02
526	2.98
527	2.99
528	2.97
529	2.98
