Uv/Vis Spectrum: 2,6-Dimethylnaphthalene
Formula: C12H12
CAS: 581-42-0
Melting point: 112
Boiling point: 262
Instrument: n.i.g.
Origin: INSTITUTE OF ENERGY PROBLEMS OF CHEMICAL PHYSICS, RAS
Wavelength (nm)	Logarithm epsilon
209.809	4.31827
209.967	4.32663
210.832	4.37648
210.992	4.38787
211.14	4.40732
211.435	4.41565
211.578	4.42671
211.719	4.43507
211.877	4.44343
212.015	4.44609
212.158	4.45714
212.897	4.49627
213.325	4.50154
213.466	4.50991
213.607	4.51828
213.762	4.52093
213.907	4.535
214.491	4.57115
214.62	4.56003
214.632	4.57952
214.79	4.58788
214.931	4.59624
215.073	4.60461
215.229	4.60995
215.951	4.64875
216.827	4.69054
216.967	4.69622
217.125	4.70458
217.264	4.70992
217.407	4.72097
217.703	4.73233
217.85	4.74876
217.988	4.75174
218.287	4.76847
218.853	4.7764
219.427	4.79608
219.583	4.80142
219.722	4.8071
219.86	4.80975
220.017	4.81543
220.296	4.82645
220.45	4.8291
220.59	4.83477
221.459	4.86514
221.599	4.87082
221.738	4.8765
221.893	4.87915
222.032	4.88449
222.17	4.88748
222.327	4.89281
222.466	4.89849
224.473	4.95378
224.767	4.96211
225.626	4.97601
225.899	4.97863
226.187	4.97587
226.457	4.97278
227.567	4.92781
227.698	4.91938
227.847	4.91397
227.98	4.90822
228.103	4.8887
228.608	4.79919
228.75	4.78235
228.874	4.76283
229.359	4.64275
229.494	4.61482
229.99	4.51154
230.113	4.49202
230.49	4.41632
230.611	4.39142
230.753	4.37458
231.108	4.29082
231.245	4.26559
231.374	4.25447
231.613	4.17611
231.748	4.17339
231.866	4.14547
232.121	4.09232
232.382	4.04756
232.504	4.02535
232.742	3.9722
233.006	3.93282
233.13	3.9133
233.269	3.89108
233.766	3.79049
233.89	3.77097
234.036	3.7595
234.674	3.66727
234.8	3.65078
234.944	3.63663
235.076	3.63088
235.719	3.54436
235.863	3.53021
235.99	3.51641
236.12	3.50797
236.272	3.50525
236.668	3.46046
236.674	3.46886
237.072	3.42675
237.199	3.41295
237.328	3.40149
237.455	3.38768
238.545	3.30911
238.675	3.30068
238.825	3.29527
238.956	3.28683
239.088	3.28109
239.219	3.27266
239.37	3.26993
239.504	3.26721
239.636	3.26146
241.168	3.21068
241.724	3.20248
241.86	3.20244
242.413	3.19088
242.566	3.19084
242.835	3.1854
242.986	3.18234
246.374	3.1899
247.236	3.20918
247.374	3.21217
247.943	3.22581
250.239	3.28102
250.387	3.27292
250.824	3.2923
251.101	3.30063
251.533	3.31162
251.671	3.31427
251.827	3.31995
251.965	3.3226
252.397	3.33358
254.538	3.38615
254.695	3.39182
254.832	3.39447
255.126	3.4028
255.264	3.40546
255.834	3.41943
255.99	3.42477
258.567	3.49403
258.863	3.50504
259.295	3.51602
259.434	3.5217
260.138	3.53262
261.723	3.56583
261.861	3.56848
262.151	3.57144
262.289	3.57409
262.427	3.57674
262.582	3.57939
262.719	3.58238
262.857	3.58504
263.012	3.58769
263.716	3.59894
263.853	3.60159
264.008	3.60424
264.148	3.60992
264.438	3.61254
264.576	3.61519
264.714	3.61818
264.868	3.62083
265.142	3.62345
265.994	3.62627
266.284	3.62888
266.694	3.63147
266.849	3.63446
267.276	3.63704
267.702	3.63962
271.227	3.64984
271.654	3.65276
272.081	3.65534
272.218	3.658
272.509	3.66095
272.647	3.6636
272.938	3.66622
273.636	3.66907
274.775	3.66879
276.595	3.64314
276.729	3.64042
276.88	3.63735
277.014	3.63463
277.149	3.63191
277.283	3.62885
277.434	3.62613
277.568	3.62341
277.702	3.62035
277.853	3.61762
277.989	3.61759
280.49	3.5669
280.911	3.56109
281.064	3.56105
281.335	3.55829
281.486	3.55523
281.754	3.54979
281.907	3.54975
282.177	3.54666
282.463	3.54121
284.986	3.52648
285.272	3.52103
285.406	3.51797
285.54	3.51525
285.691	3.51252
285.825	3.50947
285.958	3.50406
286.109	3.50133
286.242	3.49559
286.376	3.49287
287.901	3.43099
288.031	3.42256
288.164	3.41682
288.313	3.4114
288.445	3.40566
288.578	3.40025
288.727	3.3945
290.511	3.33828
290.798	3.33518
291.221	3.33239
291.357	3.33236
291.644	3.32959
292.329	3.30994
292.478	3.30419
292.612	3.30146
293.12	3.21767
293.155	3.03049
293.238	2.94679
293.257	3.19243
293.307	3.05565
293.367	2.93567
293.383	3.1756
293.464	3.08922
293.518	2.93261
293.649	2.92452
293.777	2.91306
293.908	2.90463
294.058	2.89921
294.19	2.89347
295.994	2.84295
296.55	2.83441
296.702	2.83438
296.971	2.8286
297.105	2.82588
297.256	2.82281
297.39	2.82009
297.523	2.81468
297.669	2.80322
297.803	2.8005
297.937	2.79778
298.475	2.73346
298.593	2.70554
298.961	2.61607
299.087	2.59924
299.767	2.54597
299.906	2.55165
301.444	2.53716
301.738	2.54549
301.881	2.55654
302.021	2.56222
302.178	2.56789
303.869	2.58125
304.158	2.58118
304.443	2.57573
304.579	2.5757
304.865	2.56992
304.995	2.56148
305.128	2.55574
306.806	2.52206
306.947	2.53042
307.106	2.53878
307.245	2.54413
307.392	2.56089
307.531	2.56657
307.843	2.60278
308.155	2.639
308.293	2.64165
308.437	2.65539
308.622	2.70575
308.76	2.70841
308.915	2.73929
309.064	2.75874
309.275	2.85076
309.421	2.86753
309.57	2.88698
310.982	2.88932
311.133	2.88659
311.266	2.88085
311.388	2.85864
311.905	2.76341
312.034	2.75229
312.162	2.73848
312.313	2.73542
312.677	2.66577
312.822	2.65431
312.948	2.63781
313.073	2.62098
313.482	2.59568
313.893	2.5734
314.18	2.5703
314.316	2.57027
315.453	2.5673
315.591	2.56996
315.868	2.57829
316.624	2.64531
316.774	2.66745
316.936	2.68152
316.964	2.72587
317.666	2.7341
317.952	2.72865
318.077	2.71182
318.455	2.63645
318.576	2.61391
318.719	2.59707
319.234	2.52436
319.364	2.51593
319.497	2.51052
319.641	2.49637
321.032	2.46545
321.306	2.46807
321.461	2.47105
321.602	2.47908
321.748	2.49585
321.937	2.55159
322.094	2.58515
322.272	2.65198
322.43	2.66034
322.467	2.71913
322.621	2.74699
322.81	2.83061
322.86	2.9089
322.96	2.85275
322.99	2.90046
323.017	2.94212
323.187	2.96997
323.325	2.97296
323.339	2.99514
323.473	2.99242
323.486	3.0119
323.637	3.00918
324.055	2.99765
325.479	3.01981
325.614	3.01709
325.728	2.98346
325.873	2.96931
326.391	2.90231
326.513	2.8801
326.638	2.86327
327.021	2.79597
327.151	2.75964
327.373	2.68163
327.503	2.64531
327.606	2.59219
327.74	2.58947
327.827	2.51115
327.953	2.46945
327.992	2.31587
328.02	2.36056
328.105	2.27955
