Uv/Vis Spectrum: (4-bromophenyl)(5-phenyl-3-isoxazolyl)methanone
Formula: C16H10BrNO2
CAS: 58144-68-6
Melting point: 137-138
Instrument: SF-4
Origin: INSTITUTE OF ENERGY PROBLEMS OF CHEMICAL PHYSICS, RAS
Wavelength (nm)	Logarithm epsilon
218.399	4.316
220.399	4.276
222.399	4.241
224.399	4.209
226.399	4.181
228.399	4.159
230.399	4.143
232.399	4.136
234.399	4.138
236.399	4.149
238.399	4.17
240.399	4.198
242.399	4.234
244.317	4.277
246.22	4.314
248.317	4.36
250.317	4.408
252.317	4.446
254.317	4.475
256.317	4.497
258.317	4.516
260.317	4.535
262.317	4.555
264.317	4.577
266.317	4.598
268.317	4.617
270.317	4.632
272.317	4.64
274.317	4.642
276.317	4.637
278.317	4.626
280.317	4.609
282.317	4.587
284.317	4.558
286.317	4.521
288.244	4.48
290.244	4.437
292.244	4.383
294.244	4.331
296.244	4.283
298.244	4.239
300.244	4.191
302.244	4.13
304.244	4.047
306.244	3.936
308.244	3.796
309.476	3.697
