Uv/Vis Spectrum: (4-chlorophenyl)(5-phenyl-3-isoxazolyl)methanone
Formula: C16H10ClNO2
CAS: 58144-67-5
Melting point: 139-140
Instrument: SF-4
Origin: INSTITUTE OF ENERGY PROBLEMS OF CHEMICAL PHYSICS, RAS
Wavelength (nm)	Logarithm epsilon
218.514	3.95
219.514	3.929
220.514	3.908
221.514	3.886
222.514	3.865
223.514	3.845
224.514	3.825
225.514	3.806
226.514	3.789
227.514	3.773
228.514	3.76
229.514	3.748
230.514	3.739
231.514	3.732
232.514	3.728
233.514	3.727
234.514	3.729
235.514	3.735
236.514	3.744
237.514	3.757
238.514	3.774
239.514	3.795
240.514	3.82
241.514	3.849
242.514	3.883
243.514	3.922
243.53	3.922
244.53	3.964
245.53	4.003
246.53	4.04
247.53	4.075
248.53	4.108
249.53	4.139
250.53	4.168
251.53	4.195
252.53	4.222
253.53	4.246
254.53	4.27
255.53	4.292
256.53	4.314
257.53	4.334
258.53	4.354
259.53	4.373
260.53	4.392
261.53	4.41
262.53	4.428
262.898	4.436
263.898	4.452
264.898	4.464
265.898	4.473
266.898	4.48
267.898	4.484
268.898	4.487
269.898	4.488
270.898	4.487
271.898	4.484
272.898	4.48
273.898	4.475
274.898	4.468
275.898	4.46
276.898	4.451
277.898	4.44
278.898	4.428
279.898	4.414
280.898	4.399
281.898	4.382
282.75	4.365
283.75	4.343
284.75	4.317
285.75	4.287
286.75	4.254
287.75	4.219
288.75	4.183
289.75	4.147
290.75	4.111
291.75	4.075
292.75	4.041
293.75	4.008
294.75	3.978
295.75	3.95
296.75	3.924
297.75	3.901
297.761	3.898
298.761	3.882
299.761	3.864
300.761	3.845
301.761	3.825
302.761	3.804
303.761	3.783
304.761	3.762
305.761	3.741
306.761	3.719
307.761	3.698
308.761	3.676
309.761	3.654
310.761	3.633
311.761	3.611
312.761	3.589
313.761	3.567
314.761	3.544
315.761	3.52
316.761	3.496
317.761	3.471
318.761	3.444
319.761	3.416
320.761	3.385
