Uv/Vis Spectrum: 1,2-Diphenylpropane
Formula: C15H16
CAS: 5814-85-7
Boiling point: 271/ 700 mm
Instrument: unknown
Origin: INSTITUTE OF ENERGY PROBLEMS OF CHEMICAL PHYSICS, RAS
Wavelength (nm)	Logarithm epsilon
231.74	2.384
231.94	2.345
232.16	2.3
232.38	2.274
232.59	2.246
232.8	2.216
233.01	2.189
233.22	2.167
233.44	2.139
233.65	2.113
233.86	2.09
234.07	2.072
234.28	2.056
234.5	2.042
234.71	2.027
234.92	2.018
235.13	2.008
235.34	2
235.56	1.993
235.77	1.987
235.98	1.982
236.19	1.976
236.4	1.974
236.62	1.972
236.83	1.968
237.04	1.966
237.25	1.966
237.46	1.968
237.68	1.97
237.89	1.974
238.1	1.976
238.31	1.978
238.52	1.985
238.74	1.991
238.95	1.999
239.16	2.009
239.37	2.018
239.58	2.029
239.8	2.041
240.01	2.052
240.22	2.067
240.43	2.082
240.65	2.094
240.86	2.109
241.07	2.123
241.28	2.137
241.49	2.146
241.71	2.155
241.92	2.163
242.13	2.172
242.34	2.178
242.55	2.183
242.77	2.187
242.98	2.193
243.19	2.198
243.4	2.204
243.61	2.208
243.83	2.214
244.04	2.22
244.25	2.225
244.46	2.232
244.67	2.237
244.89	2.244
245.1	2.252
245.31	2.26
245.52	2.269
245.73	2.278
245.95	2.294
246.16	2.311
246.37	2.329
246.58	2.346
246.79	2.362
247.01	2.376
247.22	2.389
247.43	2.396
247.64	2.401
247.86	2.404
248.07	2.406
248.28	2.407
248.49	2.408
248.7	2.409
248.92	2.409
249.13	2.41
249.34	2.411
249.55	2.413
249.76	2.414
249.98	2.416
250.19	2.42
250.4	2.426
250.61	2.434
250.82	2.446
251.04	2.46
251.25	2.483
251.46	2.501
251.67	2.518
251.88	2.535
252.1	2.547
252.31	2.557
252.52	2.565
252.73	2.573
252.94	2.577
253.16	2.578
253.37	2.578
253.58	2.576
253.79	2.573
254	2.57
254.22	2.566
254.43	2.562
254.64	2.559
254.85	2.554
255.06	2.55
255.28	2.547
255.49	2.543
255.7	2.54
255.91	2.539
256.13	2.54
256.34	2.541
256.55	2.545
256.76	2.553
256.97	2.564
257.17	2.583
257.4	2.607
257.61	2.632
257.79	2.651
257.93	2.665
258.08	2.669
258.29	2.67
258.5	2.669
258.71	2.665
258.92	2.662
259.14	2.658
259.31	2.656
259.52	2.652
259.73	2.648
259.94	2.644
260.15	2.64
260.37	2.636
260.58	2.633
260.79	2.63
261	2.626
261.21	2.622
261.43	2.615
261.64	2.608
261.85	2.598
262.06	2.584
262.27	2.566
262.49	2.545
262.7	2.529
262.91	2.525
263.12	2.522
263.34	2.522
263.55	2.526
263.76	2.536
263.97	2.544
264.18	2.548
264.4	2.547
264.61	2.54
264.82	2.53
265.03	2.52
265.24	2.506
265.46	2.49
265.67	2.474
265.88	2.459
266.09	2.44
266.3	2.429
266.52	2.425
266.73	2.426
266.94	2.432
267.15	2.44
267.36	2.449
267.58	2.455
267.79	2.466
268	2.469
268.21	2.466
268.42	2.457
268.64	2.443
268.85	2.414
269.06	2.376
269.27	2.33
269.48	2.291
269.7	2.248
269.91	2.201
270.12	2.158
270.33	2.1
270.55	2.046
270.76	2
270.97	1.943
271.18	1.897
271.39	1.85
271.61	1.798
271.82	1.755
272.03	1.71
272.24	1.669
272.45	1.619
272.67	1.567
272.88	1.514
273.09	1.46
273.3	1.413
273.51	1.352
273.73	1.309
273.94	1.251
274.15	1.193
274.37	1.128
274.62	1.052
274.81	0.994
275	0.929
275.21	0.832
275.48	0.712
275.63	0.628
