Uv/Vis Spectrum: Acridine, 2-amino-
Formula: C13H10N
CAS: 581-28-2
Melting point: 213-214
Instrument: Perkin-Elmer 402
Origin: INSTITUTE OF ENERGY PROBLEMS OF CHEMICAL PHYSICS, RAS
Wavelength (nm)	Logarithm epsilon
207.884	3.964
208.41	3.975
208.936	3.975
209.068	3.98
210.568	3.993
212.068	4.007
213.568	4.023
215.068	4.039
216.568	4.057
218.068	4.076
219.568	4.095
221.068	4.115
222.568	4.134
224.068	4.154
225.568	4.174
227.068	4.193
228.568	4.213
230.068	4.233
231.568	4.252
233.068	4.271
234.568	4.289
236.068	4.305
237.568	4.316
239.068	4.321
240.568	4.316
242.068	4.296
242.791	4.271
244.291	4.241
245.791	4.238
247.291	4.255
248.791	4.286
250.291	4.326
251.791	4.37
253.291	4.416
254.791	4.461
255.806	4.496
257.306	4.534
258.806	4.586
260.306	4.639
261.806	4.682
263.306	4.707
264.806	4.712
266.306	4.696
267.806	4.662
269.306	4.613
270.806	4.554
272.306	4.491
273.806	4.429
274.739	4.407
276.239	4.338
277.739	4.274
279.239	4.215
280.739	4.162
282.239	4.115
283.739	4.073
285.239	4.036
286.739	4.003
288.239	3.973
289.739	3.946
291.239	3.921
292.739	3.896
294.239	3.872
295.739	3.847
297.239	3.82
298.739	3.793
300.239	3.763
301.739	3.73
303.239	3.696
304.739	3.66
306.239	3.622
307.739	3.582
309.239	3.543
310.739	3.503
312.239	3.465
313.739	3.428
315.239	3.394
316.739	3.365
318.239	3.34
319.739	3.32
321.239	3.307
322.739	3.3
324.239	3.299
325.739	3.304
327.239	3.313
330.077	3.32
331.577	3.337
333.077	3.366
334.577	3.39
336.077	3.399
337.577	3.389
339.077	3.361
340.577	3.321
342.077	3.277
343.577	3.242
345.077	3.225
346.577	3.239
348.101	3.286
349.601	3.334
351.101	3.424
352.601	3.488
354.101	3.491
355.601	3.428
357.101	3.327
358.601	3.255
358.75	3.25
360.25	3.209
361.75	3.181
363.25	3.164
364.75	3.155
366.25	3.155
367.75	3.16
369.25	3.17
370.75	3.185
372.25	3.202
373.75	3.222
375.25	3.243
376.75	3.265
378.25	3.287
379.75	3.309
381.25	3.331
382.75	3.351
384.25	3.371
385.75	3.389
387.25	3.406
388.75	3.422
390.25	3.436
391.75	3.449
393.25	3.461
394.75	3.471
396.25	3.48
397.75	3.489
399.25	3.496
400.75	3.502
402.25	3.508
403.75	3.514
405.25	3.518
406.75	3.523
408.25	3.527
409.75	3.531
411.25	3.535
412.75	3.539
414.25	3.542
415.75	3.546
416.139	3.544
417.639	3.552
419.139	3.556
420.639	3.556
422.139	3.553
423.639	3.549
425.139	3.544
426.639	3.539
428.139	3.532
429.639	3.525
431.139	3.517
432.639	3.508
434.139	3.498
435.639	3.487
437.139	3.473
438.639	3.457
440.139	3.438
441.639	3.416
443.139	3.391
444.639	3.363
446.139	3.331
447.639	3.295
449.139	3.257
450.639	3.215
452.139	3.17
453.639	3.122
455.139	3.072
456.639	3.021
458.139	2.968
459.639	2.915
461.139	2.862
462.639	2.81
464.139	2.759
465.639	2.71
467.139	2.664
468.639	2.62
470.139	2.579
471.639	2.542
473.139	2.508
474.639	2.476
476.139	2.446
477.639	2.416
479.139	2.386
480.627	2.344
482.127	2.322
483.627	2.301
485.127	2.281
486.627	2.261
488.127	2.243
489.627	2.225
491.127	2.207
492.627	2.19
494.127	2.174
495.627	2.158
497.127	2.143
498.627	2.127
500.127	2.113
501.627	2.099
503.127	2.085
504.627	2.071
506.127	2.058
507.627	2.045
509.127	2.032
510.627	2.02
512.127	2.007
513.627	1.995
515.127	1.984
516.627	1.972
518.127	1.961
519.627	1.949
521.127	1.938
522.627	1.928
524.127	1.917
525.627	1.906
527.127	1.896
528.627	1.885
530.127	1.875
531.627	1.865
533.127	1.855
534.627	1.845
536.127	1.835
537.627	1.826
539.127	1.816
540.627	1.806
542.127	1.797
543.627	1.787
545.127	1.778
546.627	1.768
548.127	1.759
549.627	1.749
551.127	1.74
552.627	1.731
554.127	1.722
555.627	1.712
557.127	1.703
558.627	1.694
560.127	1.685
561.627	1.675
563.127	1.666
564.627	1.657
566.127	1.648
567.627	1.639
569.127	1.63
570.627	1.621
572.127	1.612
573.627	1.603
575.127	1.593
576.627	1.584
578.127	1.575
579.627	1.566
581.127	1.557
582.627	1.547
