Uv/Vis Spectrum: 2,6-naphthalenediol
Formula: C10H8O2
CAS: 581-43-1
Melting point: 218
Instrument: SF-16
Origin: INSTITUTE OF ENERGY PROBLEMS OF CHEMICAL PHYSICS, RAS
Wavelength (nm)	Logarithm epsilon
204.904	4.256
206.904	4.26
208.904	4.278
210.904	4.295
212.904	4.31
214.904	4.328
216.904	4.359
218.904	4.41
220.388	4.469
221.982	4.522
222.893	4.575
224.259	4.622
225.625	4.676
227.138	4.742
229.138	4.791
231.138	4.837
233.138	4.864
235.138	4.849
236.526	4.812
237.138	4.773
237.91	4.713
239.138	4.638
239.988	4.561
241.1	4.493
242.1	4.424
243.1	4.358
244.1	4.294
245.1	4.231
246.1	4.168
247.1	4.103
248.1	4.037
249.1	3.968
250.1	3.897
251.1	3.825
252.329	3.735
253.375	3.664
254.329	3.608
255.221	3.553
256.329	3.5
258.187	3.459
260.329	3.447
262.381	3.46
264.7	3.478
266.762	3.502
268.762	3.52
270.762	3.539
272.762	3.558
274.762	3.577
276.762	3.595
278.762	3.611
280.762	3.623
282.762	3.633
284.762	3.638
286.762	3.64
288.762	3.637
290.762	3.63
292.762	3.619
294.762	3.605
296.762	3.588
298.762	3.569
301.237	3.544
303.237	3.525
305.237	3.505
307.237	3.486
309.237	3.47
311.237	3.459
313.154	3.451
315.154	3.446
317.154	3.435
319.154	3.42
321.154	3.397
323.154	3.368
325.154	3.332
327.154	3.289
329.154	3.24
331.154	3.185
333.154	3.127
335.319	3.063
337.319	3.004
339.319	2.946
341.319	2.898
343.319	2.862
345.319	2.839
347.319	2.826
349.319	2.817
351.319	2.81
