Uv/Vis Spectrum: (4-methylphenyl)(5-phenyl-3-isoxazolyl)methanone
Formula: C17H13NO2
CAS: 58144-64-2
Melting point: 115-117
Instrument: SF-4
Origin: INSTITUTE OF ENERGY PROBLEMS OF CHEMICAL PHYSICS, RAS
Wavelength (nm)	Logarithm epsilon
217.275	4.433
218.275	4.415
219.275	4.4
220.275	4.388
221.275	4.378
222.275	4.369
223.275	4.363
224.275	4.357
225.275	4.353
226.275	4.349
227.275	4.347
228.275	4.345
229.275	4.345
230.275	4.345
231.275	4.346
232.275	4.349
233.275	4.353
234.275	4.359
235.275	4.366
236.275	4.375
237.275	4.385
238.275	4.398
239.275	4.413
240.275	4.429
241.275	4.447
242.275	4.467
243.275	4.487
243.473	4.491
244.473	4.514
245.473	4.537
246.473	4.56
247.473	4.582
248.473	4.602
249.473	4.619
250.473	4.634
251.473	4.647
252.473	4.656
253.473	4.663
254.473	4.667
255.473	4.668
256.473	4.667
257.473	4.663
258.473	4.658
259.473	4.65
260.473	4.641
261.473	4.631
262.473	4.619
263.473	4.605
264.473	4.589
265.248	4.575
266.248	4.555
267.248	4.533
268.248	4.503
269.248	4.466
270.248	4.425
271.248	4.387
272.248	4.356
273.31	4.331
274.31	4.311
275.31	4.296
276.31	4.285
277.31	4.277
278.31	4.272
279.31	4.269
280.31	4.268
281.31	4.268
282.31	4.269
283.31	4.27
284.31	4.271
285.31	4.271
286.31	4.272
287.31	4.271
288.31	4.27
289.31	4.267
290.31	4.264
291.31	4.26
292.31	4.255
293.31	4.25
294.31	4.244
295.31	4.238
296.31	4.232
297.23	4.223
298.23	4.219
299.23	4.212
300.23	4.203
301.23	4.192
302.23	4.179
303.23	4.166
304.23	4.151
305.23	4.136
306.23	4.121
307.23	4.104
308.23	4.085
309.23	4.064
310.23	4.039
311.23	4.01
312.201	3.975
313.201	3.941
314.201	3.907
315.201	3.872
316.201	3.836
317.201	3.798
318.201	3.76
319.201	3.724
320.201	3.689
321.201	3.658
322.201	3.629
323.201	3.602
324.201	3.575
325.201	3.544
