Uv/Vis Spectrum: 2,3-Dimethylnaphthalene
Formula: C12H12
CAS: 581-40-8
Melting point: 105
Boiling point: 268
Instrument: n.i.g.
Origin: INSTITUTE OF ENERGY PROBLEMS OF CHEMICAL PHYSICS, RAS
Wavelength (nm)	Logarithm epsilon
221.215	4.90112
222.462	4.91756
223.812	4.94287
225.081	4.96474
225.081	4.96474
225.719	4.9645
226.041	4.96387
226.325	4.96232
226.325	4.96232
227.001	4.9364
227.652	4.91062
228.26	4.8846
228.804	4.85795
229.264	4.83032
229.264	4.83032
229.383	4.80916
229.501	4.78799
229.62	4.76682
229.738	4.74565
229.855	4.72447
229.973	4.70329
230.09	4.6821
230.207	4.6609
230.323	4.6397
230.439	4.6185
230.555	4.59729
230.67	4.57608
230.785	4.55486
230.9	4.53364
231.014	4.51241
231.129	4.49118
231.242	4.46994
231.356	4.4487
231.469	4.42746
231.581	4.40621
231.694	4.38496
231.805	4.3637
231.917	4.34244
232.028	4.32118
232.139	4.29991
232.249	4.27864
232.359	4.25736
232.469	4.23608
232.578	4.21479
232.687	4.19351
232.796	4.17221
232.904	4.15092
233.012	4.12962
233.119	4.10832
233.226	4.08701
233.333	4.06571
233.439	4.04439
233.545	4.02308
233.65	4.00176
233.755	3.98044
233.86	3.95911
233.964	3.93778
234.068	3.91645
234.171	3.89512
234.274	3.87378
234.298	3.80535
234.315	3.82894
234.318	3.78166
234.369	3.75788
234.376	3.85244
234.376	3.85244
234.445	3.73402
234.539	3.71009
234.646	3.6861
234.759	3.66205
234.871	3.63795
234.976	3.61382
235.069	3.58965
235.143	3.56546
235.143	3.56546
235.264	3.54068
235.369	3.51943
235.464	3.50074
235.554	3.48366
235.645	3.46724
235.743	3.45051
235.853	3.43254
235.982	3.41235
236.135	3.38899
236.317	3.36152
236.535	3.32897
236.794	3.29038
236.794	3.29038
237.636	3.27175
238.238	3.25035
238.809	3.22813
239.559	3.20706
240.695	3.18909
242.426	3.17616
242.678	3.17504
243.566	3.17662
244.425	3.18125
245.155	3.18972
245.348	3.19178
245.348	3.19178
245.53	3.20449
245.842	3.2136
246.458	3.22445
246.458	3.22445
247.081	3.24743
247.734	3.27109
248.507	3.29386
249.489	3.31415
250.769	3.33041
252.439	3.34105
252.439	3.34105
253.512	3.36067
254.36	3.3807
255.055	3.40078
255.672	3.42055
256.284	3.43966
256.965	3.45776
257.789	3.47449
258.828	3.48949
260.157	3.50243
261.85	3.51293
261.85	3.51293
262.111	3.51739
262.325	3.52438
262.675	3.53988
262.675	3.53988
263.507	3.55992
264.327	3.58201
265.254	3.6035
266.413	3.62171
267.922	3.63399
267.922	3.63399
270.044	3.62984
271.544	3.62611
272.689	3.62486
273.745	3.62818
274.976	3.63816
276.65	3.65686
276.65	3.65686
277.833	3.65823
278.916	3.65207
279.906	3.63973
280.815	3.62255
281.651	3.60187
282.423	3.57903
283.142	3.55538
283.816	3.53227
284.456	3.51104
285.071	3.49303
285.67	3.47958
285.67	3.47958
286.802	3.47954
287.805	3.47819
288.828	3.47115
288.828	3.47115
289.332	3.44256
289.836	3.41396
290.988	3.32157
291.265	3.29999
291.564	3.27828
291.88	3.25646
292.207	3.23454
292.54	3.21254
292.873	3.19048
293.203	3.16838
293.522	3.14624
293.827	3.12409
294.111	3.10195
294.37	3.07983
294.598	3.05774
294.79	3.03571
294.941	3.01375
295.046	2.99188
296.073	2.91574
296.379	2.88775
296.576	2.83106
296.576	2.83106
296.585	2.85934
296.688	2.83103
296.809	2.831
296.935	2.83097
296.935	2.83097
297.084	2.81228
297.112	2.78269
297.112	2.78269
297.13	2.79976
297.653	2.7729
298.03	2.75834
298.287	2.73996
298.471	2.71876
298.625	2.69569
298.797	2.67173
299.031	2.64784
299.373	2.62501
299.867	2.60419
300.56	2.58636
301.497	2.5725
302.723	2.56357
303.082	2.56348
303.231	2.56389
303.38	2.56418
303.528	2.56442
303.528	2.56442
303.964	2.5854
304.405	2.60637
304.855	2.62735
304.855	2.62735
305.113	2.62913
305.375	2.63091
305.646	2.63269
305.646	2.63269
305.87	2.601
306.153	2.60171
306.273	2.62607
306.444	2.60236
306.507	2.61767
306.575	2.60504
306.74	2.60289
306.74	2.60289
307.189	2.57929
307.637	2.55567
308.092	2.53203
308.56	2.50839
309.046	2.48472
309.558	2.46105
310.101	2.43736
310.683	2.41365
311.309	2.38993
311.985	2.3662
311.985	2.3662
312.178	2.36403
312.381	2.3618
312.588	2.35946
312.945	2.35832
313.968	2.3784
314.409	2.4028
315.42	2.42465
315.42	2.42465
316.024	2.42296
316.356	2.41946
316.54	2.41119
316.54	2.41119
316.687	2.41009
316.833	2.40893
316.979	2.40766
317.137	2.40103
317.141	2.40332
317.144	2.4055
317.148	2.40761
317.148	2.40761
318.167	2.41961
318.609	2.43462
320.095	2.43877
320.095	2.43877
320.483	2.41428
320.88	2.38997
321.289	2.36579
321.71	2.34167
322.145	2.31755
322.596	2.29337
323.064	2.26906
323.551	2.24455
324.057	2.21979
