Uv/Vis Spectrum: [5-(2-furanyl)-3-isoxazolyl]phenylmethanone
Formula: C14H9NO3
CAS: 58144-72-2
Melting point: 88-90
Instrument: SF-4
Origin: INSTITUTE OF ENERGY PROBLEMS OF CHEMICAL PHYSICS, RAS
Wavelength (nm)	Logarithm epsilon
217.204	4.248
219.204	4.193
221.204	4.143
223.204	4.104
225.204	4.076
227.204	4.06
229.204	4.054
231.204	4.058
233.204	4.068
235.204	4.085
237.204	4.107
239.204	4.133
241.204	4.163
243.204	4.198
245.363	4.235
247.363	4.27
249.363	4.307
251.363	4.341
253.363	4.372
255.363	4.4
257.363	4.424
259.363	4.445
261.363	4.463
263.363	4.479
265.363	4.494
267.363	4.506
269.363	4.514
271.363	4.518
273.363	4.516
275.363	4.506
277.363	4.487
279.363	4.456
281.148	4.422
283.148	4.367
285.148	4.315
287.148	4.265
289.148	4.213
291.148	4.16
293.148	4.103
295.148	4.041
297.148	3.974
299.148	3.903
301.148	3.827
303.148	3.749
305.148	3.671
307.148	3.596
308.427	3.551
