Uv/Vis Spectrum: 1-(4-chlorophenyl)-2-cyano-1-(9H-fluoren-9-ylidene)hydrazinium, inner salt
Formula: C20H12ClN3
CAS: 5825-75-2
Melting point: 192-193 (dec.)
Instrument: Zeiss PMQ 20
Origin: INSTITUTE OF ENERGY PROBLEMS OF CHEMICAL PHYSICS, RAS
Wavelength (nm)	Logarithm epsilon
211.961	4.432
214.232	4.408
216.551	4.376
218.922	4.34
221.345	4.31
223.822	4.294
225.75	4.289
227.736	4.268
230.359	4.252
231.693	4.254
233.043	4.266
234.409	4.286
235.79	4.317
237.189	4.355
239.092	4.415
240.53	4.466
241.525	4.502
242.992	4.544
244.477	4.577
245.984	4.617
247.502	4.656
248.64	4.679
249.882	4.691
251.137	4.682
252.405	4.648
253.044	4.62
253.686	4.585
254.364	4.546
255.611	4.504
257.255	4.451
258.92	4.41
260.607	4.38
264.048	4.351
267.58	4.338
271.209	4.311
273.06	4.283
274.937	4.244
276.84	4.194
278.683	4.127
280.638	4.034
282.621	3.937
284.632	3.847
286.672	3.77
289.214	3.698
291.321	3.656
293.458	3.632
295.627	3.619
297.828	3.609
300.062	3.598
302.33	3.586
304.632	3.572
306.97	3.559
309.344	3.549
311.755	3.543
314.204	3.541
316.692	3.539
318.959	3.531
320.959	3.514
323.033	3.497
325.134	3.48
327.262	3.469
329.418	3.463
331.602	3.462
333.816	3.459
335.965	3.448
337.11	3.433
338.16	3.413
339.599	3.393
341.626	3.379
343.976	3.374
346.359	3.383
348.775	3.398
350.682	3.405
352.808	3.394
354.443	3.378
356.212	3.352
357.485	3.336
358.767	3.323
360.821	3.315
362.671	3.319
363.991	3.33
365.321	3.347
366.66	3.364
368.676	3.401
371.388	3.448
374.868	3.533
378.415	3.625
382.029	3.716
385.713	3.803
389.468	3.885
393.298	3.96
397.203	4.029
401.187	4.094
405.252	4.155
409.399	4.211
413.633	4.26
417.665	4.306
422.072	4.346
426.573	4.374
431.171	4.391
435.87	4.398
440.672	4.397
445.58	4.389
450.6	4.372
455.734	4.34
460.986	4.281
466.33	4.187
471.831	4.08
477.463	3.932
483.231	3.701
