Uv/Vis Spectrum: 2,7-naphthalenediol
Formula: C10H8O2
CAS: 582-17-2
Melting point: 190
Instrument: SF-16
Origin: INSTITUTE OF ENERGY PROBLEMS OF CHEMICAL PHYSICS, RAS
Wavelength (nm)	Logarithm epsilon
209.301	4.376
210.301	4.403
211.301	4.436
212.301	4.47
213.301	4.505
214.301	4.539
215.301	4.572
216.301	4.605
217.301	4.637
218.301	4.669
219.301	4.701
220.301	4.733
221.301	4.765
222.301	4.796
223.301	4.824
224.301	4.849
225.301	4.868
226.301	4.879
227.301	4.881
228.301	4.873
229.301	4.856
230.301	4.83
231.301	4.799
231.856	4.774
232.35	4.75
233.35	4.647
234.35	4.516
235.35	4.378
236.35	4.249
237.35	4.139
238.35	4.051
239.35	3.983
240.569	3.915
241.569	3.881
242.569	3.847
243.569	3.815
244.569	3.787
245.569	3.764
246.569	3.746
247.569	3.732
248.569	3.723
249.569	3.717
250.569	3.716
251.569	3.717
252.569	3.722
253.569	3.729
254.569	3.738
255.569	3.751
256.569	3.765
257.569	3.782
258.569	3.8
259.569	3.818
260.569	3.834
261.569	3.844
262.569	3.844
263.569	3.828
263.618	3.829
264.618	3.78
265.618	3.768
266.618	3.779
267.618	3.798
268.618	3.817
269.618	3.827
270.618	3.82
271.618	3.795
271.752	3.787
272.752	3.751
273.752	3.714
274.752	3.674
275.752	3.635
276.752	3.595
277.752	3.556
278.752	3.518
279.752	3.482
280.752	3.447
281.752	3.414
282.752	3.383
283.752	3.355
284.752	3.328
285.752	3.304
286.752	3.283
287.752	3.263
288.752	3.245
289.752	3.23
290.752	3.216
291.752	3.204
292.752	3.193
293.752	3.184
294.752	3.176
295.752	3.17
296.752	3.164
297.752	3.16
298.752	3.158
299.752	3.156
300.752	3.156
301.752	3.159
302.752	3.163
303.752	3.17
304.752	3.18
305.833	3.194
306.833	3.204
307.833	3.214
308.833	3.225
309.833	3.235
310.833	3.247
311.833	3.258
312.833	3.271
313.833	3.283
314.833	3.296
315.833	3.309
316.833	3.322
317.833	3.335
318.833	3.349
319.833	3.362
320.833	3.375
321.833	3.388
322.833	3.4
323.833	3.412
324.833	3.424
325.833	3.435
326.833	3.446
327.833	3.457
328.833	3.467
329.833	3.477
330.833	3.486
331.833	3.495
332.833	3.504
333.833	3.512
334.833	3.521
335.548	3.526
336.548	3.534
337.548	3.542
338.548	3.549
339.548	3.557
340.548	3.563
341.548	3.57
342.548	3.575
343.548	3.579
344.548	3.581
345.548	3.582
346.548	3.581
347.548	3.578
348.548	3.573
349.548	3.564
350.548	3.553
351.548	3.538
352.548	3.52
353.548	3.498
354.548	3.472
355.548	3.443
356.192	3.42
356.761	3.403
357.761	3.37
358.761	3.338
359.761	3.306
360.761	3.275
361.761	3.245
362.761	3.217
363.761	3.19
364.761	3.165
365.761	3.142
366.761	3.12
367.607	3.103
368.607	3.085
369.607	3.069
370.607	3.053
371.607	3.04
372.607	3.027
373.607	3.014
374.607	3.003
375.607	2.991
376.607	2.98
377.607	2.969
378.607	2.957
379.607	2.944
