Uv/Vis Spectrum: Testosterone
Formula: C19H28O2
CAS: 58-22-0
Melting point: 154.5-155.5
Instrument: Unicam SP 800
Origin: INSTITUTE OF ENERGY PROBLEMS OF CHEMICAL PHYSICS, RAS
Wavelength (nm)	Logarithm epsilon
204.52	3.328
205.36	3.355
206.19	3.382
207.03	3.409
208.03	3.433
208.87	3.46
209.87	3.483
210.71	3.507
211.55	3.531
212.38	3.558
213.39	3.581
214.23	3.609
215.23	3.632
216.07	3.659
217.07	3.683
217.91	3.707
218.74	3.734
219.75	3.758
220.59	3.785
221.59	3.808
222.43	3.835
223.26	3.862
224.27	3.883
225.27	3.906
226.11	3.93
226.95	3.957
227.78	3.981
228.79	4.005
229.62	4.028
230.63	4.052
231.46	4.076
232.47	4.099
233.31	4.123
234.31	4.143
235.48	4.16
236.65	4.177
237.99	4.191
239.33	4.204
240.7	4.215
242.34	4.221
243.87	4.222
245.3	4.216
246.86	4.204
248.2	4.191
249.54	4.174
250.71	4.154
251.75	4.132
252.89	4.11
253.72	4.083
254.56	4.059
255.23	4.032
255.9	4.005
256.74	3.978
257.24	3.951
257.74	3.923
258.24	3.896
258.58	3.866
259.08	3.839
259.58	3.812
260.08	3.785
260.59	3.758
261.09	3.727
261.59	3.697
262.09	3.666
262.43	3.636
262.93	3.609
263.43	3.581
263.77	3.551
264.27	3.524
264.77	3.497
265.1	3.466
265.61	3.436
265.94	3.405
266.44	3.375
266.78	3.345
267.28	3.314
267.62	3.284
267.95	3.253
268.28	3.223
268.62	3.192
268.95	3.162
269.3	3.128
269.62	3.101
269.96	3.07
270.23	3.041
270.58	3.006
270.79	2.979
271.13	2.948
271.46	2.918
271.74	2.892
272.03	2.863
272.3	2.827
272.64	2.796
272.84	2.767
273.14	2.735
273.47	2.705
273.72	2.68
273.97	2.644
274.31	2.613
274.64	2.583
274.88	2.558
275.15	2.522
275.48	2.491
275.82	2.461
275.98	2.43
276.32	2.4
276.6	2.366
276.99	2.342
277.27	2.312
277.66	2.281
277.99	2.251
278.33	2.221
278.66	2.19
279	2.16
279.5	2.129
279.83	2.099
280.17	2.068
280.67	2.041
281.17	2.011
281.51	1.98
282.01	1.953
282.51	1.926
283.35	1.899
284.18	1.875
285.36	1.855
286.86	1.845
288.37	1.835
289.87	1.835
291.21	1.845
292.72	1.845
294.06	1.858
295.56	1.865
296.9	1.875
298.41	1.882
299.75	1.892
301.26	1.899
302.76	1.909
304.27	1.912
305.77	1.916
307.28	1.916
308.79	1.916
310.29	1.916
311.8	1.916
313.31	1.912
314.81	1.912
316.32	1.902
317.82	1.896
319.33	1.885
320.84	1.875
322.18	1.865
323.51	1.852
324.69	1.835
326.03	1.818
327.36	1.801
328.54	1.784
329.71	1.767
330.71	1.747
331.88	1.726
333.05	1.706
334.06	1.686
335.06	1.665
336.07	1.642
337.07	1.621
337.91	1.598
338.74	1.574
339.75	1.55
340.59	1.527
341.42	1.503
342.43	1.479
343.26	1.452
344.1	1.428
344.94	1.401
345.61	1.374
346.44	1.35
347.11	1.323
347.78	1.296
348.45	1.269
349.12	1.242
349.96	1.215
350.63	1.188
351.3	1.161
351.97	1.134
352.64	1.107
353.31	1.08
354.14	1.053
354.81	1.025
355.65	1.002
356.49	0.975
357.32	0.948
358.16	0.924
358.83	0.897
359.83	0.873
360.5	0.846
361.51	0.822
362.34	0.795
363.18	0.772
364.02	0.744
364.85	0.721
365.69	0.697
