Uv/Vis Spectrum: 2-Hydroxyacetophenone
Formula: C8H8O2
CAS: 582-24-1
Melting point: 90
Boiling point: 125; 56(1)
Instrument: Hitachi MPF-2
Origin: INSTITUTE OF ENERGY PROBLEMS OF CHEMICAL PHYSICS, RAS
Wavelength (nm)	Logarithm epsilon
225.28	3.58664
225.482	3.57075
225.702	3.55339
225.957	3.53472
226.264	3.51493
226.64	3.49428
227.102	3.47306
227.667	3.45163
228.351	3.43042
229.172	3.40998
229.172	3.40998
229.644	3.40937
230.121	3.4086
230.607	3.40774
230.607	3.40774
231.548	3.41763
232.445	3.43108
233.296	3.44716
234.101	3.46497
234.859	3.48374
235.569	3.50275
236.23	3.52144
236.84	3.53932
237.401	3.55596
237.909	3.57103
238.365	3.5842
238.767	3.5952
238.767	3.5952
239.396	3.61945
239.879	3.6374
240.249	3.65107
240.537	3.66212
240.776	3.67199
240.999	3.68198
241.237	3.69326
241.523	3.70689
241.523	3.70689
241.769	3.7146
242.021	3.72695
242.268	3.73431
242.268	3.73431
242.38	3.74183
242.486	3.74875
242.589	3.7552
242.69	3.76126
242.789	3.76705
242.889	3.77264
242.99	3.77813
243.095	3.78359
243.203	3.78911
243.318	3.79475
243.439	3.80059
243.569	3.8067
243.709	3.81313
243.86	3.81994
244.024	3.82718
244.201	3.8349
244.394	3.84314
244.603	3.85194
244.831	3.86132
245.077	3.87132
245.345	3.88193
245.635	3.89319
245.948	3.90509
246.286	3.91762
246.65	3.93079
247.042	3.94458
247.462	3.95897
247.462	3.95897
247.643	3.95955
247.8	3.9613
248.066	3.9657
248.066	3.9657
249.043	3.96564
249.825	3.96308
250.466	3.95866
251.018	3.953
251.534	3.94678
252.066	3.94067
252.669	3.93541
253.393	3.93175
253.393	3.93175
254.117	3.93573
254.385	3.93773
254.429	3.93951
254.429	3.93951
254.794	3.93948
255.165	3.93945
255.544	3.93942
255.544	3.93942
256.003	3.93198
256.337	3.92428
256.593	3.92002
256.593	3.92002
256.689	3.91304
256.784	3.90594
256.878	3.89873
256.972	3.8914
257.065	3.88394
257.157	3.87636
257.248	3.86864
257.339	3.86079
257.429	3.85279
257.518	3.84465
257.607	3.83635
257.695	3.82789
257.784	3.81926
257.871	3.81046
257.958	3.80148
258.045	3.79231
258.131	3.78294
258.217	3.77337
258.303	3.76357
258.389	3.75355
258.474	3.7433
258.559	3.73279
258.644	3.72203
258.73	3.71098
258.815	3.69965
258.899	3.68801
258.985	3.67605
259.07	3.66374
259.155	3.65107
259.24	3.63802
259.325	3.62456
259.411	3.61066
259.497	3.5963
259.583	3.58144
259.669	3.56604
259.756	3.55007
259.843	3.53349
259.93	3.51623
260.018	3.49825
260.106	3.47948
260.195	3.45986
260.285	3.43929
260.375	3.41768
260.375	3.41768
260.673	3.37222
260.909	3.33653
261.093	3.30856
261.236	3.28477
261.346	3.26041
261.436	3.22947
261.436	3.22947
261.929	3.20597
262.166	3.17207
262.308	3.12923
262.512	3.07934
262.939	3.0254
263.748	2.97235
263.748	2.97235
264.04	2.90225
264.6	2.82482
265.387	2.73857
266.361	2.64154
267.481	2.53105
268.705	2.4033
269.994	2.25285
271.306	2.07168
271.306	2.07168
273.266	2.08989
275.235	2.10569
277.208	2.11778
277.208	2.11778
278.128	2.20412
278.825	2.23711
281.167	2.36113
281.913	2.4058
283.024	2.42176
283.024	2.42176
284.982	2.55154
286.841	2.63889
287.979	2.69802
287.979	2.69802
288.919	2.72887
289.682	2.75754
290.549	2.77437
290.549	2.77437
290.58	2.7877
290.62	2.79996
290.665	2.81156
290.665	2.81156
291.747	2.86208
292.817	2.90841
293.877	2.95118
294.926	2.99091
295.966	3.02798
296.998	3.06273
298.02	3.09541
299.035	3.12623
300.042	3.1554
301.042	3.18305
302.036	3.20932
303.024	3.23433
304.006	3.25817
304.984	3.28093
305.958	3.30268
306.928	3.3235
307.894	3.34345
308.858	3.36256
309.82	3.38091
310.78	3.39852
311.739	3.41544
312.698	3.4317
313.656	3.44733
314.615	3.46237
315.575	3.47683
316.537	3.49075
317.5	3.50414
318.467	3.51702
319.436	3.52942
320.409	3.54135
321.387	3.55283
321.387	3.55283
322.829	3.56083
324.22	3.56616
325.577	3.56912
326.914	3.56997
328.246	3.56896
329.591	3.56629
330.962	3.56214
332.376	3.55671
333.848	3.55018
333.848	3.55018
334.053	3.54738
334.324	3.54391
334.712	3.53886
335.269	3.53132
336.046	3.52024
337.096	3.5044
338.467	3.4823
340.214	3.45189
342.386	3.41021
342.386	3.41021
343.225	3.3893
344.064	3.36734
344.903	3.3442
345.741	3.31975
346.58	3.29384
347.419	3.26627
348.258	3.23681
349.097	3.2052
349.936	3.17108
350.774	3.13401
351.613	3.09346
351.613	3.09346
353.797	2.98256
355.138	2.89631
355.868	2.83901
356.216	2.80471
356.414	2.77789
