Uv/Vis Spectrum: 3,4-Dimethylcyclopentanone
Formula: C7H12O
CAS: 58372-16-0
Instrument: Beckman DU
Origin: INSTITUTE OF ENERGY PROBLEMS OF CHEMICAL PHYSICS, RAS
Wavelength (nm)	Logarithm epsilon
222.28	0.881
222.43	0.879
223.42	0.863
224	0.857
224.57	0.853
225.14	0.847
225.71	0.843
226.28	0.834
226.85	0.826
227.42	0.817
227.99	0.808
228.56	0.796
229.13	0.787
229.7	0.777
230.27	0.767
230.84	0.76
231.42	0.747
231.99	0.734
232.56	0.723
233.13	0.714
233.7	0.697
234.27	0.691
234.84	0.676
235.41	0.663
235.98	0.66
236.55	0.65
237.12	0.65
237.69	0.65
238.27	0.647
238.84	0.647
239.41	0.644
239.98	0.64
240.55	0.637
241.12	0.634
241.69	0.634
242.26	0.634
242.83	0.637
243.4	0.64
243.97	0.647
244.54	0.65
245.11	0.66
245.69	0.666
246.26	0.676
246.83	0.682
247.4	0.691
247.97	0.697
248.54	0.703
249.11	0.709
249.68	0.717
250.25	0.723
250.82	0.734
251.39	0.744
251.96	0.755
252.53	0.767
253.11	0.78
253.68	0.789
254.25	0.794
254.82	0.803
255.39	0.81
255.96	0.819
256.53	0.828
257.1	0.837
257.67	0.849
258.24	0.857
258.81	0.869
259.38	0.881
259.96	0.891
260.53	0.904
261.1	0.913
261.67	0.918
262.24	0.927
262.81	0.934
263.38	0.944
263.95	0.949
264.52	0.955
265.09	0.963
265.66	0.97
266.23	0.977
266.8	0.985
267.38	0.997
267.95	1.012
268.52	1.023
269.09	1.032
269.66	1.039
270.23	1.043
270.8	1.048
271.37	1.051
271.94	1.056
272.51	1.062
273.08	1.069
273.65	1.079
274.22	1.088
274.8	1.1
275.37	1.112
275.94	1.124
276.51	1.136
277.08	1.146
277.65	1.154
278.22	1.159
278.79	1.167
279.36	1.172
279.93	1.176
280.5	1.179
281.07	1.181
281.64	1.181
282.22	1.181
282.79	1.183
283.36	1.185
283.93	1.188
284.5	1.191
285.07	1.196
285.64	1.203
286.21	1.21
286.78	1.218
287.35	1.226
287.92	1.235
288.49	1.243
289.07	1.251
289.64	1.258
290.21	1.261
290.78	1.255
291.35	1.245
291.92	1.236
292.49	1.227
293.06	1.22
293.63	1.216
294.2	1.213
294.77	1.212
295.34	1.212
295.91	1.214
296.49	1.217
297.06	1.221
297.63	1.229
298.2	1.239
298.77	1.249
299.34	1.265
299.91	1.272
300.48	1.275
301.05	1.272
301.62	1.245
302.19	1.224
302.76	1.207
303.33	1.189
303.91	1.173
304.48	1.153
305.05	1.131
305.62	1.122
306.19	1.115
306.76	1.112
307.33	1.111
307.9	1.112
308.47	1.122
309.04	1.133
309.61	1.145
310.18	1.16
310.76	1.174
311.33	1.181
311.9	1.172
312.47	1.152
313.04	1.117
313.61	1.088
314.18	1.047
314.75	0.996
315.32	0.954
315.89	0.913
316.46	0.877
317.03	0.847
317.6	0.826
318.18	0.808
318.75	0.789
319.32	0.784
319.89	0.78
320.46	0.782
321.03	0.787
321.6	0.796
322.17	0.812
322.74	0.826
323.31	0.834
323.88	0.826
324.45	0.796
325.02	0.75
325.6	0.663
326.17	0.595
326.74	0.494
327.31	0.434
327.88	0.364
328.45	0.296
329.02	0.223
329.59	0.137
