Uv/Vis Spectrum: Acetophenone phenylhydrazone
Formula: C14H14N2
CAS: 583-11-9
Melting point: 106
Instrument: n.i.g.
Origin: INSTITUTE OF ENERGY PROBLEMS OF CHEMICAL PHYSICS, RAS
Wavelength (nm)	Logarithm epsilon
255.75	3.966
256.36	3.935
256.97	3.917
257.58	3.9
258.2	3.886
258.81	3.872
259.44	3.855
260.06	3.837
260.69	3.823
261.32	3.802
261.95	3.792
262.59	3.785
263.22	3.771
263.87	3.757
264.51	3.747
265.16	3.74
265.81	3.726
266.47	3.722
267.13	3.715
267.79	3.708
268.45	3.705
269.12	3.698
269.79	3.695
270.47	3.698
271.15	3.701
271.83	3.708
272.51	3.708
273.2	3.715
273.89	3.722
274.59	3.729
275.29	3.736
275.99	3.747
276.7	3.75
277.41	3.764
278.12	3.778
278.84	3.789
279.56	3.799
280.28	3.809
281.01	3.82
281.74	3.827
282.48	3.841
283.22	3.855
283.96	3.869
284.71	3.883
285.46	3.896
286.22	3.91
286.98	3.921
287.74	3.935
288.51	3.945
289.28	3.963
290.06	3.98
290.84	3.99
291.62	3.997
292.41	4.011
293.2	4.025
294	4.039
294.8	4.046
295.61	4.057
296.42	4.074
297.23	4.084
298.05	4.095
298.88	4.109
299.71	4.123
300.54	4.133
301.38	4.14
302.22	4.154
303.07	4.164
303.92	4.171
304.77	4.192
305.64	4.196
306.5	4.206
307.37	4.217
308.25	4.224
309.13	4.238
310.02	4.245
310.91	4.252
311.81	4.255
312.71	4.265
313.61	4.279
314.53	4.29
315.44	4.29
316.37	4.297
317.3	4.3
318.23	4.311
319.17	4.314
320.11	4.325
321.06	4.325
322.02	4.328
322.98	4.332
323.95	4.335
324.92	4.335
325.9	4.339
326.89	4.346
327.88	4.346
328.88	4.346
329.88	4.342
330.89	4.342
331.91	4.342
332.93	4.335
333.96	4.332
334.99	4.328
336.03	4.325
337.08	4.314
338.13	4.307
339.19	4.297
340.26	4.286
341.34	4.269
342.42	4.265
343.5	4.248
344.6	4.234
345.7	4.22
346.81	4.199
347.93	4.178
349.05	4.161
350.18	4.126
351.32	4.098
352.46	4.067
353.61	4.05
354.77	3.987
355.94	3.942
357.12	3.858
358.3	3.802
359.49	3.743
360.69	3.66
361.9	3.611
363.11	3.545
364.34	3.479
365.57	3.395
366.81	3.332
368.06	3.263
369.32	3.2
370.58	3.138
371.86	3.054
373.14	2.984
374.43	2.911
375.73	2.824
377.04	2.73
378.36	2.647
379.69	2.594
381.03	2.497
382.38	2.438
383.73	2.309
385.1	2.243
386.48	2.184
387.86	2.093
389.26	2.003
390.67	1.947
392.08	1.87
393.51	1.804
394.95	1.728
396.4	1.637
397.85	1.557
399.32	1.491
401.41	1.394
403.42	1.299
