Uv/Vis Spectrum: o-Benzoquinone
Formula: C6H4O2
CAS: 583-63-1
Melting point: 60-70 dec
Instrument: Beckman DU
Origin: INSTITUTE OF ENERGY PROBLEMS OF CHEMICAL PHYSICS, RAS
Wavelength (nm)	Logarithm epsilon
318.89	3.538
325	3.526
331.11	3.514
337.23	3.491
343.34	3.491
349.46	3.502
355.57	3.514
361.68	3.526
367.8	3.549
373.91	3.561
380.03	3.573
386.14	3.573
392.26	3.549
397.69	3.502
403.12	3.455
408.56	3.397
412.64	3.326
416.03	3.244
419.43	3.162
423.51	3.08
426.22	2.986
429.62	2.892
431.66	2.786
433.7	2.681
436.41	2.587
438.45	2.481
440.49	2.387
443.89	2.293
446.6	2.2
450	2.117
453.4	2.035
456.79	1.953
460.19	1.871
463.59	1.777
466.98	1.695
470.38	1.601
473.78	1.519
477.85	1.448
481.93	1.366
486.68	1.296
490.76	1.225
496.2	1.19
502.31	1.155
508.42	1.131
514.54	1.155
520.65	1.178
526.09	1.225
532.2	1.249
537.64	1.296
543.75	1.319
549.18	1.354
555.3	1.39
561.41	1.401
567.53	1.413
573.64	1.425
579.76	1.448
585.87	1.448
591.98	1.46
598.1	1.46
604.21	1.46
610.33	1.437
616.44	1.437
622.55	1.401
628.67	1.378
634.1	1.343
639.54	1.284
643.61	1.202
646.33	1.108
648.37	1.014
650.41	0.92
653.12	0.826
656.52	0.744
659.92	0.662
663.32	0.58
666.71	0.498
670.11	0.415
673.51	0.322
678.26	0.251
682.34	0.181
687.77	0.122
693.21	0.087
