Uv/Vis Spectrum: 1,2,3,4,5,6,7-heptafluoro-1H-indene
Formula: C9HF7
CAS: 58348-29-1
Boiling point: 55-56/13 mm
Instrument: Specord UV-Vis
Origin: INSTITUTE OF ENERGY PROBLEMS OF CHEMICAL PHYSICS, RAS
Wavelength (nm)	Logarithm epsilon
228.17	3.533
229.062	3.478
229.822	3.414
231.322	3.3
232.822	3.184
234.322	3.071
235.613	2.977
236.199	2.945
237.113	2.92
238.462	2.92
239.47	2.934
240.66	2.957
241.671	2.983
243.171	3.018
244.671	3.05
246.171	3.081
247.671	3.112
249.171	3.142
250.671	3.171
252.171	3.2
253.671	3.227
255.171	3.253
256.671	3.275
258.171	3.294
259.671	3.309
261.171	3.32
262.671	3.328
264.323	3.331
265.823	3.339
267.323	3.337
268.823	3.328
270.323	3.315
271.823	3.301
273.323	3.285
274.823	3.27
276.323	3.256
277.823	3.243
279.323	3.231
280.823	3.22
282.323	3.212
283.823	3.205
285.323	3.201
286.823	3.199
288.323	3.2
289.823	3.205
291.362	3.215
292.862	3.229
294.362	3.241
295.862	3.25
297.362	3.255
298.862	3.255
300.362	3.251
301.862	3.242
303.362	3.228
304.862	3.209
306.362	3.186
307.862	3.157
309.362	3.124
310.862	3.086
312.362	3.042
313.862	2.992
315.362	2.935
316.882	2.867
318.382	2.792
319.882	2.695
321.382	2.602
