Uv/Vis Spectrum: 1-naphthalenecarbothioic acid, O-ethyl ester
Formula: C13H12OS
CAS: 58303-26-7
Melting point: 41
Instrument: unknown
Origin: INSTITUTE OF ENERGY PROBLEMS OF CHEMICAL PHYSICS, RAS
Wavelength (nm)	Logarithm epsilon
253.202	4.005
254.202	3.961
255.202	3.92
256.202	3.882
257.202	3.848
258.202	3.816
259.202	3.788
260.202	3.762
261.202	3.739
262.202	3.718
263.202	3.699
264.202	3.683
265.202	3.668
266.202	3.655
267.202	3.644
268.202	3.634
269.202	3.626
270.202	3.62
271.202	3.614
272.202	3.61
273.202	3.607
274.202	3.605
275.202	3.604
276.202	3.604
277.202	3.605
278.202	3.607
279.202	3.609
280.202	3.612
281.202	3.616
282.202	3.62
283.202	3.625
284.202	3.63
285.202	3.635
286.202	3.642
287.202	3.648
288.202	3.655
289.202	3.662
290.202	3.669
291.202	3.677
292.202	3.684
293.202	3.692
294.202	3.7
295.202	3.708
296.202	3.717
297.202	3.725
298.202	3.733
299.202	3.741
300.202	3.748
301.202	3.756
302.202	3.763
303.202	3.77
304.202	3.777
305.202	3.783
306.202	3.789
307.202	3.794
308.202	3.798
309.202	3.802
310.202	3.804
311.202	3.806
312.202	3.807
313.202	3.806
314.202	3.805
315.202	3.802
316.202	3.797
317.202	3.791
318.202	3.783
319.202	3.773
320.202	3.761
321.202	3.747
322.202	3.73
322.295	3.723
323.295	3.711
324.295	3.696
325.295	3.68
326.295	3.663
327.295	3.646
328.295	3.628
329.295	3.609
330.295	3.59
331.295	3.571
332.295	3.552
333.295	3.533
334.295	3.514
335.295	3.495
336.295	3.476
337.295	3.456
338.295	3.437
339.295	3.417
340.295	3.396
341.295	3.376
342.295	3.354
343.295	3.332
344.295	3.309
345.295	3.286
346.295	3.261
347.295	3.235
348.295	3.208
349.295	3.18
350.295	3.15
351.295	3.119
352.295	3.087
353.295	3.053
354.295	3.018
355.295	2.982
356.295	2.945
357.295	2.907
358.295	2.868
359.295	2.828
360.295	2.788
361.295	2.747
361.613	2.743
362.613	2.689
363.613	2.641
364.613	2.596
365.613	2.557
366.613	2.521
367.613	2.49
368.613	2.462
369.613	2.438
370.613	2.418
371.613	2.401
372.613	2.386
373.613	2.375
374.613	2.366
375.613	2.36
376.613	2.356
377.613	2.354
378.613	2.354
379.613	2.355
380.613	2.359
381.613	2.363
382.613	2.369
383.613	2.376
384.613	2.384
385.613	2.393
386.613	2.402
387.613	2.412
388.613	2.422
389.613	2.433
390.613	2.443
391.613	2.454
392.613	2.465
393.613	2.476
394.613	2.486
395.613	2.497
396.613	2.507
397.613	2.516
398.613	2.525
399.613	2.534
400.613	2.542
401.613	2.549
402.613	2.556
403.613	2.563
404.613	2.568
405.613	2.573
406.613	2.577
407.613	2.581
408.613	2.584
409.613	2.586
410.613	2.587
411.613	2.588
412.613	2.588
413.613	2.588
414.613	2.587
415.613	2.585
416.613	2.583
417.613	2.58
418.613	2.577
419.613	2.573
420.613	2.569
421.613	2.564
422.613	2.559
423.613	2.554
424.613	2.548
425.613	2.542
426.613	2.536
427.613	2.53
428.613	2.523
429.613	2.516
430.613	2.508
431.613	2.5
432.613	2.492
433.613	2.484
434.613	2.475
435.613	2.466
436.613	2.456
437.613	2.445
438.613	2.434
439.613	2.422
440.613	2.409
441.613	2.394
442.613	2.379
443.613	2.362
444.449	2.345
445.449	2.323
446.449	2.302
447.449	2.281
448.449	2.261
449.449	2.24
450.449	2.218
451.449	2.194
452.449	2.17
453.449	2.144
454.449	2.116
455.449	2.086
456.449	2.055
457.449	2.023
458.449	1.989
459.449	1.953
460.449	1.917
461.449	1.88
462.449	1.842
463.449	1.803
464.449	1.764
465.449	1.724
466.449	1.684
467.449	1.645
468.449	1.605
469.449	1.566
470.449	1.527
471.449	1.489
472.449	1.451
473.449	1.414
474.449	1.377
475.449	1.34
476.449	1.304
477.449	1.268
478.449	1.232
479.449	1.196
480.449	1.16
481.449	1.124
482.449	1.087
483.449	1.05
484.449	1.013
485.449	0.974
486.449	0.935
487.449	0.894
488.449	0.853
489.449	0.811
490.449	0.767
491.449	0.723
492.449	0.679
493.449	0.634
494.449	0.589
495.449	0.545
496.449	0.502
497.449	0.461
498.449	0.424
