Uv/Vis Spectrum: Benzene, 2,4-diisocyanato-1-methyl-
Formula: C9H6N2O2
CAS: 584-84-9
Melting point: 21.5
Boiling point: 121/ 10 mm
Instrument: SF-4
Origin: INSTITUTE OF ENERGY PROBLEMS OF CHEMICAL PHYSICS, RAS
Wavelength (nm)	Logarithm epsilon
229.36	4.219
229.74	4.214
230.12	4.209
230.5	4.203
230.98	4.198
231.27	4.192
231.75	4.187
232.03	4.182
232.51	4.177
232.89	4.171
233.37	4.166
233.75	4.16
234.23	4.155
234.71	4.149
235.09	4.143
235.56	4.137
236.04	4.132
236.52	4.126
236.9	4.12
237.47	4.114
237.86	4.107
238.43	4.101
238.91	4.094
239.48	4.088
239.96	4.082
240.43	4.076
241.01	4.069
241.48	4.062
241.96	4.054
242.44	4.047
242.82	4.039
243.11	4.031
243.59	4.024
243.87	4.016
244.25	4.007
244.73	4
245.21	3.992
245.78	3.986
246.45	3.98
247.31	3.977
248.17	3.977
249.03	3.979
249.79	3.982
250.46	3.988
251.13	3.994
251.8	4
252.37	4.007
252.94	4.015
253.52	4.022
254.09	4.029
254.57	4.036
255.04	4.043
255.62	4.05
256.09	4.056
256.67	4.063
257.14	4.07
257.72	4.076
258.2	4.082
258.77	4.087
259.44	4.092
260.2	4.096
261.06	4.097
261.92	4.095
262.68	4.093
263.35	4.087
263.92	4.082
264.31	4.075
264.78	4.068
265.26	4.061
265.64	4.054
266.12	4.046
266.5	4.038
266.88	4.03
267.27	4.022
267.55	4.014
267.84	4.005
268.22	3.997
268.51	3.988
268.79	3.978
268.89	3.968
269.27	3.958
269.46	3.948
269.75	3.936
269.94	3.925
270.23	3.913
270.32	3.902
270.51	3.889
270.8	3.877
270.89	3.864
270.99	3.85
271.28	3.838
271.37	3.823
271.56	3.809
271.66	3.793
271.85	3.778
272.04	3.761
272.23	3.744
272.42	3.726
272.61	3.708
272.8	3.688
273	3.668
273.28	3.649
273.47	3.627
273.76	3.606
274.05	3.584
274.33	3.561
274.62	3.537
274.81	3.508
275.29	3.48
275.67	3.451
276.15	3.419
276.62	3.39
277.01	3.353
277.58	3.323
278.06	3.286
278.63	3.245
279.18	3.204
279.79	3.166
280.44	3.119
281.21	3.076
281.97	3.038
282.65	3.01
283.59	2.974
284.29	2.95
285.31	2.926
286.12	2.912
287.03	2.9
287.89	2.886
