Uv/Vis Spectrum: 1-acethyl-1,5-dihydro-5,5-dimethyl-4-phenyl-2H-imidazole-2-thione
Formula: C13H14N2OS
CAS: 58417-98-4
Melting point: 129-130
Instrument: unknown
Origin: INSTITUTE OF ENERGY PROBLEMS OF CHEMICAL PHYSICS, RAS
Wavelength (nm)	Logarithm epsilon
224.755	3.743
225.371	3.782
226.755	3.814
228.453	3.818
229.837	3.789
230.919	3.759
231.919	3.741
232.919	3.721
233.919	3.701
234.919	3.685
235.919	3.673
236.919	3.667
237.919	3.666
238.919	3.671
239.919	3.679
240.919	3.69
241.919	3.703
242.919	3.717
243.919	3.732
244.919	3.748
245.919	3.767
247.285	3.783
248.785	3.803
250.285	3.819
251.785	3.83
253.285	3.838
254.785	3.843
256.285	3.846
257.785	3.851
259.285	3.857
260.785	3.868
262.285	3.883
263.785	3.903
265.285	3.929
266.785	3.959
268.285	3.992
269.785	4.027
271.285	4.062
272.785	4.094
274.285	4.124
275.785	4.149
277.145	4.169
278.645	4.188
280.145	4.207
281.645	4.224
283.145	4.239
284.645	4.252
286.145	4.263
287.645	4.27
289.145	4.276
290.645	4.278
292.145	4.278
293.645	4.276
295.145	4.272
296.645	4.265
298.145	4.258
299.645	4.248
301.145	4.238
302.645	4.226
304.145	4.214
305.645	4.201
307.145	4.188
308.645	4.174
310.145	4.16
311.645	4.145
313.145	4.13
314.645	4.115
316.145	4.1
317.645	4.084
319.145	4.069
320.645	4.053
322.145	4.039
323.645	4.027
325.195	4.015
326.695	4.014
328.195	4.014
329.695	4.015
331.195	4.015
332.695	4.015
334.195	4.016
335.695	4.015
337.195	4.015
338.695	4.013
340.195	4.011
341.695	4.008
343.195	4.003
344.695	3.998
346.195	3.992
347.695	3.984
349.195	3.976
350.695	3.966
352.195	3.955
353.695	3.944
355.195	3.931
356.695	3.918
358.195	3.903
359.695	3.888
361.195	3.872
362.695	3.855
364.195	3.838
365.695	3.819
365.805	3.82
367.305	3.797
368.805	3.776
370.305	3.756
371.805	3.736
373.305	3.715
374.805	3.692
376.305	3.667
377.805	3.639
379.305	3.609
380.805	3.577
382.305	3.542
383.805	3.506
385.305	3.469
386.805	3.43
388.305	3.392
389.805	3.353
391.305	3.314
392.805	3.274
394.305	3.234
395.805	3.191
397.305	3.143
400.085	3.041
401.585	2.982
403.085	2.921
404.585	2.859
