Uv/Vis Spectrum: Theophylline
Formula: C7H8N4O2
CAS: 58-55-9
Melting point: 273
Instrument: Cary Model 1115/15
Origin: INSTITUTE OF ENERGY PROBLEMS OF CHEMICAL PHYSICS, RAS
Wavelength (nm)	Logarithm epsilon
211.189	4.20271
211.692	4.18336
212.142	4.16024
212.537	4.13516
212.873	4.10994
213.149	4.08637
213.362	4.06628
213.362	4.06628
213.805	4.04929
214.411	4.01972
215.398	3.97958
215.737	3.96062
216.102	3.9416
216.494	3.92253
216.913	3.90344
217.359	3.88433
217.832	3.86523
218.331	3.84616
218.858	3.82714
219.411	3.80818
219.992	3.7893
220.599	3.77053
221.232	3.75187
221.893	3.73335
222.581	3.71499
223.295	3.69681
223.295	3.69681
224.761	3.67157
226.178	3.65307
227.896	3.63683
230.26	3.61838
230.26	3.61838
231.438	3.60102
232.484	3.58299
233.423	3.56439
234.281	3.5453
235.081	3.52584
235.85	3.50609
236.611	3.48616
237.39	3.46613
238.211	3.44612
239.099	3.42621
239.099	3.42621
240.962	3.41045
242.545	3.40544
244.138	3.41124
246.028	3.42791
246.028	3.42791
246.325	3.43522
246.894	3.44746
247.691	3.464
248.67	3.4842
249.785	3.50745
250.991	3.53311
252.242	3.56054
252.242	3.56054
252.97	3.58005
253.697	3.59955
254.425	3.61905
255.153	3.63854
255.881	3.65803
256.608	3.6775
257.336	3.69696
258.064	3.71641
258.791	3.73585
258.791	3.73585
259.432	3.75509
260.074	3.77436
260.72	3.79363
261.371	3.81289
262.03	3.83212
262.698	3.85131
263.377	3.87044
264.07	3.88949
264.777	3.90846
265.501	3.92732
266.243	3.94605
267.007	3.96466
267.792	3.9831
268.602	4.00138
268.602	4.00138
269.122	4.00508
269.459	4.00888
269.9	4.01601
269.9	4.01601
271.959	4.01492
273.178	4.00454
274.108	3.98905
275.302	3.97261
275.302	3.97261
275.484	3.96217
275.643	3.95684
275.913	3.95203
275.913	3.95203
276.339	3.93388
276.765	3.91571
277.192	3.89753
277.62	3.87934
278.048	3.86115
278.476	3.84294
278.905	3.82471
279.334	3.80648
279.762	3.78824
280.19	3.76999
280.617	3.75172
281.044	3.73345
281.47	3.71517
281.894	3.69687
282.318	3.67857
282.739	3.66025
283.16	3.64193
283.578	3.62359
283.994	3.60525
284.408	3.58689
284.82	3.56853
285.229	3.55016
285.636	3.53177
286.039	3.51338
286.44	3.49498
286.837	3.47656
287.231	3.45814
287.621	3.43971
288.007	3.42127
288.389	3.40282
288.767	3.38436
289.141	3.36589
289.511	3.34742
289.875	3.32893
290.235	3.31044
290.589	3.29193
290.939	3.27342
291.428	3.26385
291.507	3.25727
291.694	3.24851
291.933	3.23226
