Uv/Vis Spectrum: Nitrosobenzene
Formula: C6H5NO
CAS: 586-96-9
Melting point: 68.5
Boiling point: 58(18)
Instrument: n.i.g.
Origin: INSTITUTE OF ENERGY PROBLEMS OF CHEMICAL PHYSICS, RAS
Wavelength (nm)	Logarithm epsilon
230	3.82
231	3.79
232	3.98
233	3.94
234	3.9
235	4.01
236	4.05
237	4.07
238	4.09
239	4.2
240	4.17
241	4.15
242	4.21
243	4.23
244	4.26
245	4.26
246	4.27
247	4.26
248	4.28
249	4.28
250	4.27
251	4.27
252	4.28
253	4.28
254	4.27
255	4.26
256	4.2
257	4.21
258	4.23
259	4.18
260	4.11
261	4.13
262	4.15
263	4.18
264	4.08
265	4.05
266	4
267	4.02
268	3.97
269	3.93
270	3.88
271	3.85
272	3.85
273	3.77
274	3.81
275	3.75
276	3.7
277	3.65
278	3.5
279	3.54
280	3.47
281	3.38
282	3.35
283	3.29
284	3.22
285	3.22
286	3.23
287	3.22
288	3.23
289	3.24
290	3.25
291	3.24
292	3.17
293	3.12
294	3.04
295	3.01
296	2.96
297	2.94
298	3.01
299	2.98
