Uv/Vis Spectrum: 4,5-dihydro-5-oxo-1H-pyrazole-3-carboxylic acid, ethyl ester
Formula: C6H8N2O3
CAS: 58607-90-2
Melting point: 184-185
Instrument: Spectronic 600
Origin: INSTITUTE OF ENERGY PROBLEMS OF CHEMICAL PHYSICS, RAS
Wavelength (nm)	Logarithm epsilon
212.553	3.94
212.782	3.94
212.89	3.93
212.908	3.938
213.908	3.953
214.908	3.968
215.908	3.982
216.908	3.994
217.908	4.003
218.908	4.011
219.908	4.017
220.908	4.021
221.908	4.023
222.908	4.025
223.908	4.025
224.908	4.023
225.908	4.02
226.908	4.015
227.908	4.006
228.908	3.994
229.06	3.992
230.06	3.971
231.06	3.947
232.06	3.92
233.06	3.892
234.06	3.863
235.06	3.834
236.06	3.806
237.06	3.778
238.06	3.751
238.999	3.728
239.999	3.705
240.999	3.683
241.999	3.662
242.999	3.641
243.999	3.619
244.999	3.596
245.999	3.571
246.999	3.545
247.999	3.518
248.999	3.489
249.999	3.46
250.999	3.432
251.779	3.408
252.779	3.381
253.779	3.362
254.779	3.35
255.779	3.342
256.779	3.337
257.779	3.335
258.779	3.335
259.779	3.335
260.779	3.336
261.779	3.337
262.779	3.338
263.779	3.338
264.779	3.338
265.779	3.338
266.779	3.337
267.779	3.336
268.779	3.335
269.779	3.334
270.779	3.334
271.779	3.333
272.779	3.332
273.779	3.33
274.779	3.329
275.74	3.327
276.74	3.325
277.74	3.322
278.74	3.319
279.74	3.317
280.74	3.314
281.74	3.311
282.74	3.307
283.74	3.304
284.74	3.301
285.74	3.298
286.74	3.295
287.74	3.291
288.74	3.287
289.74	3.283
290.74	3.278
291.74	3.274
292.74	3.269
293.74	3.263
294.74	3.258
295.74	3.252
296.74	3.246
297.74	3.241
298.636	3.237
299.636	3.233
300.636	3.228
301.636	3.222
302.636	3.215
303.636	3.208
304.636	3.202
305.636	3.195
306.636	3.189
306.758	3.188
307.758	3.182
308.758	3.176
309.758	3.169
310.758	3.163
311.758	3.155
312.758	3.148
313.758	3.14
314.758	3.132
315.758	3.124
316.758	3.116
317.758	3.108
318.758	3.102
319.563	3.097
320.563	3.091
321.563	3.087
322.563	3.083
323.563	3.078
324.563	3.068
325.563	3.05
