Uv/Vis Spectrum: p-Bromobenzoic acid
Formula: C7H5BrO2
CAS: 586-76-5
Melting point: 254
Instrument: Unicam SP 700
Origin: INSTITUTE OF ENERGY PROBLEMS OF CHEMICAL PHYSICS, RAS
Wavelength (nm)	Logarithm epsilon
209.15	3.988
209.61	3.962
209.98	3.941
210.82	3.9
211.65	3.86
212.48	3.812
213.31	3.772
214.14	3.728
214.98	3.684
215.81	3.647
216.64	3.63
217.47	3.62
218.3	3.62
219.2	3.625
219.97	3.637
220.8	3.659
221.63	3.684
222.46	3.711
223.29	3.735
224.13	3.762
224.97	3.787
225.79	3.809
226.62	3.829
227.45	3.853
228.29	3.877
229.12	3.9
229.95	3.924
230.78	3.941
231.61	3.961
232.45	3.984
233.28	4.005
234.11	4.025
234.94	4.042
235.77	4.059
236.6	4.083
237.44	4.103
238.27	4.126
239.1	4.15
239.93	4.17
240.77	4.187
241.6	4.207
242.43	4.221
243.26	4.231
244.09	4.234
244.93	4.238
245.76	4.238
246.59	4.234
247.42	4.224
248.25	4.214
249.08	4.2
249.92	4.187
250.75	4.173
251.58	4.157
252.41	4.14
253.24	4.109
254.08	4.076
254.91	4.042
255.74	4.001
256.57	3.961
257.4	3.917
258.24	3.873
259.07	3.833
259.9	3.785
260.73	3.738
261.56	3.694
262.4	3.644
263.23	3.603
264.06	3.546
264.89	3.492
265.72	3.435
266.56	3.37
267.39	3.306
268.22	3.242
269.05	3.175
269.87	3.114
270.66	3.067
271.43	3.03
272.27	2.996
273.25	2.963
274.04	2.939
274.88	2.918
275.71	2.901
276.54	2.885
277.37	2.874
278.2	2.871
279.03	2.868
279.8	2.866
280.69	2.86
281.53	2.851
282.36	2.834
283.19	2.81
284.03	2.777
284.86	2.723
285.69	2.625
286.52	2.53
287.35	2.46
288.19	2.368
289.02	2.284
289.85	2.19
290.68	2.105
291.51	2.011
292.35	1.926
