Uv/Vis Spectrum: 4-Acetylbenzoic acid
Formula: C9H8O3
CAS: 586-89-0
Melting point: 207
Instrument: Unicam SP 700
Origin: INSTITUTE OF ENERGY PROBLEMS OF CHEMICAL PHYSICS, RAS
Wavelength (nm)	Logarithm epsilon
208.83	3.783
209.08	3.751
209.49	3.701
209.83	3.658
210.83	3.523
211.83	3.408
212.83	3.323
213.83	3.286
214.83	3.269
215.83	3.259
216.83	3.266
217.83	3.279
218.83	3.3
219.83	3.32
220.85	3.355
221.83	3.401
222.84	3.448
223.67	3.49
224.47	3.536
225.18	3.573
225.85	3.609
226.52	3.641
227.33	3.678
228	3.705
228.54	3.73
229.15	3.756
230	3.786
230.63	3.813
231.33	3.84
232	3.867
232.67	3.895
233.5	3.922
234.17	3.949
234.83	3.976
235.67	4.003
236.5	4.03
237.17	4.057
238	4.084
238.83	4.108
239.67	4.135
240.5	4.158
241.33	4.185
242.33	4.209
243.17	4.233
244.33	4.253
245.5	4.27
246.67	4.287
248	4.304
249.33	4.314
250.83	4.317
252.33	4.314
253.67	4.3
255	4.283
256.17	4.263
257	4.239
257.83	4.216
258.5	4.189
259.17	4.162
259.67	4.135
260.17	4.108
260.67	4.08
261.17	4.053
261.83	4.026
262.17	3.996
262.67	3.969
263.17	3.942
263.67	3.911
264.17	3.881
264.5	3.851
265	3.824
265.33	3.793
265.83	3.766
266.33	3.736
266.67	3.705
267	3.675
267.5	3.644
267.83	3.614
268.33	3.584
268.67	3.553
269.17	3.523
269.67	3.496
270	3.465
270.67	3.438
271.17	3.411
271.83	3.384
272.5	3.357
273.33	3.33
274.17	3.306
275.17	3.283
276.5	3.266
277.83	3.249
279.33	3.245
280.83	3.242
282.33	3.249
283.67	3.262
285.17	3.269
286.5	3.279
288	3.283
289.5	3.289
291	3.293
292.5	3.286
294	3.283
295.33	3.272
296.67	3.256
297.83	3.235
298.83	3.215
299.83	3.191
300.67	3.168
301.5	3.141
302.17	3.114
303	3.087
303.67	3.059
304.33	3.032
305	3.005
305.5	2.978
306.17	2.951
306.67	2.924
307.17	2.897
307.67	2.87
308.17	2.843
308.67	2.816
309.17	2.789
309.83	2.762
310.17	2.732
310.67	2.705
311.33	2.677
311.83	2.647
312.33	2.62
312.83	2.593
313.33	2.566
313.83	2.535
314.33	2.508
314.83	2.481
315.33	2.451
315.83	2.421
316.33	2.394
317	2.366
317.5	2.339
318.17	2.312
318.67	2.285
319.33	2.258
320.17	2.231
320.67	2.204
321.5	2.181
322.33	2.153
323.17	2.13
324	2.103
324.83	2.079
325.83	2.055
327	2.035
328.33	2.018
329.33	1.998
330.33	1.978
331.5	1.961
332.5	1.941
333.67	1.92
334.83	1.9
335.83	1.88
336.83	1.856
338	1.836
339.17	1.815
340	1.792
341	1.771
342.17	1.751
343.17	1.731
344.17	1.707
