Uv/Vis Spectrum: adenosine
Formula: C10H13N5O4
CAS: 58-61-7
Melting point: 229
Instrument: Beckman Moldel DU
Origin: INSTITUTE OF ENERGY PROBLEMS OF CHEMICAL PHYSICS, RAS
Wavelength (nm)	Logarithm epsilon
215.85	4.124
216.86	4.086
217.87	4.042
218.89	3.998
219.9	3.954
220.91	3.906
221.92	3.862
222.93	3.818
223.94	3.774
224.96	3.726
225.97	3.679
226.98	3.628
227.99	3.584
229	3.556
230	3.538
231.03	3.53
232.04	3.546
233.05	3.577
234.06	3.601
235.07	3.628
236.09	3.652
237.1	3.679
238.11	3.716
239.12	3.75
240.13	3.784
241.14	3.815
242.16	3.845
243.17	3.889
244.18	3.92
245.19	3.94
246.2	3.967
247.21	3.988
248.23	4.022
249.24	4.052
250.25	4.08
251.26	4.097
252.27	4.114
253.28	4.13
254.3	4.144
255.31	4.151
256.32	4.161
257.33	4.164
258.34	4.164
259.36	4.161
260.37	4.158
261.38	4.147
262.39	4.144
263.4	4.13
264.41	4.117
265.43	4.1
266.44	4.083
267.45	4.066
268.46	4.039
269.47	4.015
270.48	3.984
271.5	3.94
272.51	3.9
273.52	3.876
274.53	3.828
275.54	3.794
276.55	3.753
277.57	3.699
278.58	3.641
279.59	3.597
280.6	3.546
281.61	3.499
282.63	3.451
283.64	3.397
284.65	3.342
285.66	3.278
286.67	3.224
287.68	3.182
288.7	3.142
289.71	3.095
290.72	3.05
291.73	2.986
292.74	2.918
293.75	2.853
294.77	2.789
295.78	2.724
296.79	2.66
297.8	2.568
298.81	2.466
299.82	2.33
