Uv/Vis Spectrum: Triphenylethylene
Formula: C20H16
CAS: 58-72-0
Melting point: 67
Instrument: Unicam SP 700 numerical data of recording
Origin: INSTITUTE OF ENERGY PROBLEMS OF CHEMICAL PHYSICS, RAS
Wavelength (nm)	Logarithm epsilon
208.594	4.57352
208.799	4.5674
208.943	4.55309
209.096	4.55003
209.299	4.53675
209.603	4.52655
209.807	4.52248
209.961	4.51226
210.113	4.50613
210.359	4.47137
210.515	4.46525
210.669	4.46117
210.858	4.44789
211.013	4.44074
211.169	4.43052
211.374	4.4244
211.528	4.41418
211.681	4.40396
211.885	4.39682
212.04	4.38967
212.627	4.36619
212.781	4.35904
212.986	4.34883
213.139	4.34578
213.293	4.33556
213.498	4.32841
213.651	4.32229
213.806	4.31207
214.01	4.30493
214.164	4.29778
214.317	4.29472
214.521	4.28758
214.674	4.28453
214.827	4.27738
215.031	4.27433
215.184	4.27128
215.337	4.2672
215.54	4.26415
215.693	4.26109
216.354	4.25092
216.558	4.24685
216.863	4.24381
217.37	4.24079
217.726	4.23674
219.398	4.23691
219.902	4.24412
220.257	4.24416
220.61	4.25136
220.762	4.25137
221.115	4.25755
221.267	4.25756
221.772	4.26478
221.924	4.26479
222.428	4.27508
222.783	4.27511
223.136	4.28231
223.642	4.28543
223.946	4.28546
224.299	4.28857
224.804	4.29579
225.31	4.29891
225.968	4.30307
226.676	4.30621
227.334	4.30934
229.362	4.30648
230.021	4.30347
230.883	4.29947
231.239	4.29643
231.746	4.29342
232.254	4.28937
232.559	4.28633
232.914	4.2833
233.422	4.27926
233.777	4.27622
234.438	4.26913
234.793	4.26609
235.098	4.26305
235.453	4.25899
235.809	4.25596
236.114	4.25292
236.317	4.24885
236.825	4.24583
237.333	4.23872
237.638	4.23568
237.841	4.23263
238.146	4.22856
238.655	4.22248
238.858	4.2184
239.163	4.21536
239.518	4.21233
240.027	4.20522
240.382	4.20218
240.687	4.19812
241.195	4.19203
241.704	4.18492
241.907	4.18187
242.416	4.17476
242.569	4.1717
242.924	4.16764
243.585	4.15748
243.738	4.15442
244.603	4.14121
244.756	4.13713
245.62	4.12391
245.773	4.12086
245.977	4.11678
247.147	4.09643
248.012	4.08015
248.166	4.07607
248.675	4.06282
248.828	4.05976
249.032	4.05569
249.848	4.0353
250.051	4.03225
250.714	4.01492
250.867	4.01187
251.07	4.00882
252.09	3.98436
252.242	3.98131
252.395	3.97825
252.751	3.97419
252.904	3.97114
253.107	3.96809
253.26	3.96401
254.277	3.94774
254.43	3.94366
254.634	3.94061
254.939	3.93757
255.294	3.93351
255.65	3.93048
255.954	3.92744
256.969	3.92345
257.172	3.9204
258.489	3.9236
259.704	3.92782
260.209	3.93094
260.715	3.93406
261.018	3.93819
261.524	3.94131
261.879	3.94134
262.383	3.95163
262.737	3.95473
263.04	3.95886
263.243	3.95888
263.546	3.96198
264.05	3.97226
264.253	3.97228
264.404	3.97537
264.908	3.98565
265.262	3.98978
265.414	3.9898
265.565	3.99288
266.422	4.01037
266.574	4.01039
266.776	4.01347
267.079	4.01658
267.281	4.02069
267.432	4.02377
267.583	4.02686
267.785	4.03097
268.088	4.03407
268.29	4.03717
268.441	4.04127
268.592	4.04436
268.946	4.04747
269.097	4.05157
269.299	4.05466
269.45	4.05775
269.803	4.06495
269.955	4.06496
270.106	4.06805
270.308	4.07217
270.459	4.07525
270.813	4.07836
270.964	4.08247
273.335	4.12364
273.487	4.12366
273.638	4.12674
273.991	4.13394
274.143	4.13396
274.345	4.13705
274.496	4.14013
274.85	4.14426
275.001	4.14735
275.152	4.15043
275.354	4.15454
275.505	4.15763
275.859	4.16074
276.01	4.16485
276.162	4.16793
276.514	4.17513
276.666	4.17515
277.02	4.18132
277.172	4.18134
277.373	4.18545
277.676	4.19162
277.878	4.19164
278.382	4.20193
278.534	4.20194
278.888	4.20607
280.2	4.22667
280.403	4.22669
280.907	4.23698
281.059	4.23699
281.412	4.24317
281.564	4.24318
281.917	4.25038
282.22	4.25348
282.423	4.2535
282.725	4.2607
282.928	4.26072
283.23	4.26791
283.433	4.26793
283.736	4.27104
291.166	4.34342
291.824	4.34656
292.532	4.35072
293.342	4.35388
294.355	4.35705
295.063	4.36121
298.254	4.36461
299.116	4.36162
299.624	4.35758
300.132	4.35456
300.943	4.35157
301.45	4.34753
312.121	4.2258
312.324	4.22275
312.477	4.2197
312.63	4.21562
312.833	4.21257
313.138	4.20953
313.342	4.20546
313.648	4.19526
313.852	4.19221
314.005	4.18915
316.703	4.13416
316.907	4.13111
317.213	4.12091
317.417	4.11786
317.57	4.11378
317.927	4.10358
318.08	4.10053
318.59	4.08727
318.743	4.0832
318.946	4.08015
319.1	4.073
319.253	4.06994
319.456	4.06689
319.61	4.05975
319.763	4.05669
319.966	4.05262
322.009	3.98835
322.162	3.9853
322.315	3.97815
322.519	3.9751
322.673	3.96795
322.826	3.9608
323.03	3.95775
323.184	3.9506
323.337	3.94448
323.541	3.94041
323.694	3.93428
323.848	3.92713
324.051	3.92408
324.205	3.91694
324.359	3.90979
324.563	3.90367
324.716	3.89959
324.87	3.89347
325.074	3.88632
325.228	3.87917
325.381	3.87612
325.585	3.86898
325.739	3.86285
328.961	3.74037
329.165	3.73323
329.319	3.72608
329.474	3.71586
329.678	3.70974
329.832	3.70259
329.986	3.69238
330.191	3.68523
330.345	3.67501
330.499	3.66889
330.703	3.66175
333.065	3.53611
333.27	3.52589
333.425	3.51568
333.579	3.50546
333.784	3.49831
333.939	3.48503
334.093	3.47481
334.299	3.4646
334.453	3.45438
334.607	3.44723
334.813	3.43395
334.967	3.42373
335.122	3.41351
335.327	3.4033
335.482	3.39308
335.636	3.38286
335.841	3.37265
335.996	3.36243
336.15	3.35221
338.567	3.20918
338.722	3.19896
338.927	3.18875
339.082	3.17444
339.237	3.16422
339.443	3.15094
339.598	3.13765
339.752	3.1305
339.957	3.12029
340.113	3.107
340.267	3.09678
340.472	3.08657
340.627	3.07635
340.782	3.06204
340.988	3.05182
341.142	3.0416
341.297	3.02832
341.503	3.01503
341.657	3.00788
341.812	2.9946
342.017	2.98745
342.172	2.97417
342.326	2.96702
342.532	2.95373
342.687	2.93942
342.843	2.92613
343.048	2.91592
343.202	2.9057
343.358	2.89241
343.564	2.87811
343.717	2.87198
343.873	2.85767
344.079	2.84439
344.233	2.83417
344.389	2.82088
344.594	2.81067
