Uv/Vis Spectrum: 3-Methylbenzyl alcohol
Formula: C8H10O
CAS: 587-03-1
Melting point: < -20
Boiling point: 215.5
Instrument: n.i.g.
Origin: INSTITUTE OF ENERGY PROBLEMS OF CHEMICAL PHYSICS, RAS
Wavelength (nm)	Logarithm epsilon
228.725	2.19275
228.998	2.13131
229.279	2.06971
229.724	1.95743
229.875	1.91295
230.026	1.86841
230.179	1.82383
230.333	1.77922
230.49	1.73458
230.649	1.68992
230.811	1.64525
230.811	1.64525
231.061	1.61223
231.452	1.56381
232.015	1.51073
232.776	1.46369
233.765	1.43343
233.765	1.43343
234.052	1.43636
234.339	1.43929
234.626	1.44222
234.626	1.44222
235.44	1.48127
236.255	1.52029
237.069	1.5593
237.884	1.59829
238.699	1.63727
239.515	1.67623
240.331	1.71518
241.147	1.75411
241.964	1.79304
242.782	1.83196
243.601	1.87087
244.421	1.90977
245.241	1.94868
246.062	1.98758
246.062	1.98758
247.239	2.02711
248.417	2.06664
249.595	2.10615
250.774	2.14564
251.955	2.18509
253.138	2.22449
254.323	2.26385
255.512	2.30314
255.512	2.30314
257.389	2.34569
258.712	2.36965
260.3	2.38013
262.972	2.38224
262.972	2.38224
264.224	2.34544
265.216	2.30583
266.016	2.26378
266.693	2.21964
267.317	2.17379
267.955	2.12657
267.955	2.12657
268.179	2.12283
268.419	2.11891
268.667	2.11467
268.667	2.11467
269.309	2.13788
269.582	2.17873
270.077	2.22206
271.384	2.25269
271.384	2.25269
271.57	2.24062
271.773	2.22821
271.983	2.21565
271.983	2.21565
272.174	2.17734
272.358	2.13902
272.537	2.10069
272.709	2.06234
272.877	2.02397
273.041	1.98559
273.201	1.94719
273.358	1.90879
273.514	1.87037
273.667	1.83195
273.819	1.79351
273.971	1.75507
274.123	1.71662
274.276	1.67816
274.431	1.6397
274.588	1.60123
274.747	1.56277
274.911	1.5243
275.078	1.48582
275.25	1.44735
275.427	1.40888
275.61	1.37041
276.202	1.25503
276.416	1.21658
276.639	1.17813
276.872	1.13969
277.115	1.10127
277.369	1.06285
277.635	1.02444
277.913	0.986041
278.205	0.947654
278.51	0.909283
278.829	0.870925
279.164	0.832586
279.513	0.794258
279.88	0.755951
280.262	0.717662
280.663	0.679392
