Uv/Vis Spectrum: 1,2-Diphenylethylene
Formula: C14H12
CAS: 588-59-0
Melting point: 124-125
Instrument: Cary 11 M
Origin: INSTITUTE OF ENERGY PROBLEMS OF CHEMICAL PHYSICS, RAS
Wavelength (nm)	Logarithm epsilon
211.19	4.028
211.36	4.028
211.52	4.028
211.69	4.028
211.86	4.028
212.03	4.028
212.2	4.028
212.37	4.028
212.54	4.028
212.71	4.028
212.88	4.028
213.05	4.028
213.22	4.028
213.39	4.028
213.56	4.028
213.73	4.032
214.58	4.028
215.42	4.032
216.27	4.035
217.12	4.042
217.97	4.049
218.81	4.059
219.66	4.069
220.51	4.083
221.36	4.1
222.2	4.113
223.05	4.127
223.9	4.134
224.74	4.141
225.59	4.147
226.44	4.147
227.29	4.147
228.13	4.151
228.98	4.151
229.83	4.154
230.68	4.144
231.52	4.117
232.37	4.076
233.22	4.045
234.07	4.018
234.91	3.998
235.76	3.971
236.61	3.95
237.46	3.927
238.3	3.886
239.15	3.825
240	3.74
240.41	3.667
240.7	3.6
240.87	3.537
241.1	3.474
241.32	3.401
241.69	3.332
241.95	3.274
242.54	3.223
243.31	3.214
244.24	3.223
245.12	3.237
245.93	3.257
246.78	3.288
247.63	3.315
248.47	3.352
249.32	3.386
250.17	3.42
251.02	3.454
251.86	3.488
252.71	3.522
253.56	3.556
254.4	3.587
255.25	3.621
256.1	3.655
256.95	3.685
257.79	3.719
258.64	3.76
259.49	3.797
260.34	3.831
261.18	3.859
262.03	3.889
262.88	3.92
263.73	3.95
264.57	3.981
265.42	4.011
266.27	4.035
267.12	4.062
267.96	4.083
268.81	4.11
269.66	4.127
270.51	4.141
271.35	4.158
272.2	4.175
273.05	4.195
273.9	4.212
274.74	4.229
275.59	4.246
276.44	4.259
277.29	4.273
278.13	4.287
278.98	4.3
279.83	4.31
280.67	4.321
281.52	4.334
282.37	4.338
283.22	4.348
284.06	4.355
284.91	4.361
285.76	4.368
286.61	4.368
287.45	4.375
288.3	4.382
289.15	4.382
290	4.385
290.84	4.385
291.69	4.389
292.54	4.395
293.39	4.399
294.23	4.399
295.08	4.399
295.93	4.402
296.78	4.399
297.62	4.399
298.47	4.392
299.32	4.382
300.17	4.378
301.01	4.375
301.86	4.368
302.71	4.365
303.56	4.361
304.4	4.358
305.25	4.351
306.1	4.351
306.95	4.361
307.79	4.365
308.64	4.365
309.49	4.368
310.33	4.361
311.18	4.348
312.03	4.327
312.88	4.304
313.72	4.283
314.57	4.266
315.42	4.242
316.27	4.225
317.11	4.205
317.96	4.192
318.81	4.181
319.66	4.168
320.5	4.154
321.35	4.137
322.2	4.12
323.05	4.103
323.89	4.076
324.74	4.045
325.59	4.008
326.44	3.961
327.28	3.899
328.13	3.828
328.98	3.743
329.83	3.631
330.67	3.444
331.52	3.281
332.37	3.121
333.16	2.94
334.07	2.766
334.91	2.612
335.59	2.492
336.36	2.34
337.21	2.17
337.83	2.037
338.3	1.936
338.5	1.893
338.81	1.841
339.49	1.685
340.16	1.511
