Uv/Vis Spectrum: Phenylphosphinediacetic acid
Formula: C10H11O4P
CAS: 58942-13-5
Melting point: 137
Instrument: unknown
Origin: INSTITUTE OF ENERGY PROBLEMS OF CHEMICAL PHYSICS, RAS
Wavelength (nm)	Logarithm epsilon
210.923	3.983
211.923	3.967
212.923	3.959
213.923	3.953
214.923	3.949
215.923	3.944
216.923	3.938
217.923	3.928
218.923	3.916
219.923	3.899
220.923	3.88
221.923	3.856
222.923	3.83
223.923	3.801
224.923	3.769
225.923	3.735
226.923	3.7
227.923	3.662
228.458	3.642
228.985	3.619
229.985	3.567
230.985	3.527
231.985	3.498
232.985	3.479
233.985	3.468
234.985	3.464
235.985	3.466
236.985	3.471
237.985	3.479
239.03	3.49
240.03	3.495
241.03	3.498
242.03	3.5
243.03	3.5
244.03	3.499
245.03	3.497
246.03	3.493
247.03	3.489
248.03	3.482
249.03	3.475
250.03	3.466
251.03	3.455
252.03	3.443
253.03	3.43
254.03	3.414
255.03	3.397
256.03	3.379
257.03	3.359
258.03	3.337
259.03	3.313
260.03	3.289
261.03	3.263
262.03	3.236
262.478	3.221
263.16	3.199
264.16	3.177
265.16	3.157
266.16	3.135
267.16	3.106
268.16	3.068
269.16	3.022
269.861	2.986
270.212	2.965
271.212	2.913
272.212	2.894
273.212	2.886
274.212	2.873
275.212	2.843
276.212	2.791
277.212	2.714
278.212	2.617
279.212	2.509
280.038	2.425
