Uv/Vis Spectrum: 3-hydroxy-2-nitro-[1,1'-biphenyl]-4-carboxaldehyde
Formula: C13H9NO4
CAS: 58996-82-0
Melting point: 102-104
Instrument: VSU-2
Origin: INSTITUTE OF ENERGY PROBLEMS OF CHEMICAL PHYSICS, RAS
Wavelength (nm)	Logarithm epsilon
217.667	4.189
221.667	4.157
225.667	4.151
229.667	4.165
233.667	4.191
238.334	4.229
242.334	4.261
246.334	4.3
250.334	4.33
254.334	4.341
258.334	4.329
262.334	4.291
266.334	4.23
270.334	4.162
274.334	4.102
278.334	4.046
282.334	3.993
286.334	3.94
290.334	3.884
294.334	3.827
298.334	3.766
302.334	3.702
306.334	3.636
310.334	3.569
314.334	3.505
318.334	3.444
322	3.39
328	3.327
334	3.277
340	3.252
346	3.265
352	3.29
358	3.327
364	3.365
370	3.39
376	3.414
382	3.414
388	3.402
394	3.39
400.333	3.361
406	3.327
412	3.252
418	3.177
424	3.078
430	2.978
