Uv/Vis Spectrum: Pyridine, 2,5-dimethyl-
Formula: C7H9N
CAS: 589-93-5
Melting point: - 16
Boiling point: 157.0
Instrument: Unicam SP 500
Origin: INSTITUTE OF ENERGY PROBLEMS OF CHEMICAL PHYSICS, RAS
Wavelength (nm)	Logarithm epsilon
238.52	3.006
239.05	3.016
239.57	3.025
240.1	3.03
240.62	3.034
241.09	3.048
241.61	3.057
242.13	3.066
242.66	3.074
243.18	3.083
243.65	3.095
244.17	3.099
244.64	3.111
245.16	3.122
245.63	3.133
246.09	3.144
246.62	3.151
247.08	3.162
247.61	3.172
248.07	3.182
248.54	3.192
249.01	3.204
249.47	3.214
249.88	3.229
250.34	3.24
250.81	3.249
251.22	3.263
251.68	3.271
252.09	3.284
252.56	3.297
252.97	3.309
253.37	3.324
253.84	3.335
254.25	3.347
254.65	3.36
255.06	3.371
255.47	3.381
255.88	3.394
256.28	3.404
256.69	3.415
257.1	3.427
257.51	3.438
257.86	3.449
258.26	3.459
258.67	3.47
259.08	3.48
259.49	3.488
259.89	3.497
260.3	3.505
260.71	3.513
261.18	3.521
261.64	3.528
262.11	3.534
262.57	3.54
263.04	3.544
263.51	3.548
263.91	3.555
264.32	3.562
264.79	3.569
265.25	3.575
265.78	3.579
266.3	3.58
266.82	3.581
267.35	3.577
267.81	3.572
268.28	3.566
268.69	3.558
269.1	3.55
269.44	3.541
269.79	3.533
270.14	3.522
270.43	3.512
270.78	3.502
271.13	3.491
271.54	3.481
272.01	3.473
272.47	3.468
273	3.463
273.46	3.456
273.87	3.445
274.22	3.432
274.57	3.419
274.8	3.404
275.03	3.388
275.33	3.371
275.5	3.354
275.73	3.335
275.91	3.317
276.08	3.297
276.26	3.276
276.43	3.254
276.55	3.229
276.72	3.204
276.96	3.179
277.13	3.148
277.31	3.118
277.54	3.087
277.77	3.053
278	3.016
278.3	2.98
278.53	2.936
278.82	2.887
279.17	2.847
279.52	2.794
279.93	2.743
280.39	2.695
280.86	2.652
281.32	2.605
281.85	2.58
282.37	2.538
282.9	2.524
283.42	2.508
