Uv/Vis Spectrum: Uridine
Formula: C9H12N2O6
CAS: 58-96-8
Instrument: Specord UV-Vis
Origin: INSTITUTE OF ENERGY PROBLEMS OF CHEMICAL PHYSICS, RAS
Wavelength (nm)	Logarithm epsilon
201.551	4.077
202.551	4.071
203.551	4.066
204.551	4.061
205.551	4.056
206.551	4.05
207.551	4.043
208.551	4.036
209.551	4.027
210.551	4.017
211.551	4.006
212.551	3.993
213.551	3.978
214.551	3.961
215.551	3.942
216.551	3.921
217.551	3.898
218.551	3.873
219.551	3.847
220.551	3.819
221.623	3.789
222.763	3.755
223.763	3.715
224.763	3.673
225.763	3.633
226.763	3.597
227.763	3.566
228.763	3.543
229.763	3.528
230.763	3.521
231.763	3.522
232.763	3.529
233.763	3.543
234.763	3.561
235.763	3.583
236.763	3.607
237.763	3.631
238.763	3.656
239.763	3.68
240.763	3.702
241.763	3.724
242.658	3.739
243.658	3.765
244.658	3.789
245.658	3.811
246.658	3.832
247.658	3.852
248.658	3.871
249.658	3.888
250.658	3.906
251.658	3.922
252.658	3.937
253.658	3.952
254.658	3.965
255.658	3.977
256.658	3.987
257.658	3.996
258.658	4.003
259.658	4.008
260.658	4.011
261.658	4.012
262.658	4.011
263.658	4.007
264.658	4.001
265.658	3.993
266.367	3.988
267.342	3.976
268.342	3.961
269.342	3.943
270.342	3.923
271.342	3.9
272.342	3.875
273.342	3.847
274.342	3.817
275.342	3.783
276.342	3.747
277.342	3.708
278.342	3.666
279.342	3.622
280.342	3.574
281.342	3.523
282.342	3.469
283.342	3.412
284.342	3.352
285.342	3.289
286.342	3.222
287.342	3.152
288.342	3.079
289.342	3.002
290.342	2.922
