Uv/Vis Spectrum: Phenol, 2,3,4,6-tetrachloro-
Formula: C6H2Cl4O
CAS: 58-90-2
Melting point: 70
Boiling point: 150/ 15 mm
Instrument: Unicam spectrophotometer
Origin: INSTITUTE OF ENERGY PROBLEMS OF CHEMICAL PHYSICS, RAS
Wavelength (nm)	Logarithm epsilon
225.52	4.157
225.69	4.153
225.86	4.15
226.21	4.137
226.55	4.128
226.9	4.119
227.24	4.104
227.59	4.094
227.93	4.083
228.28	4.074
228.62	4.071
228.97	4.063
229.31	4.051
229.66	4.045
230	4.038
230.35	4.033
230.69	4.027
231.04	4.018
231.38	4.016
231.73	4.012
232.07	4.01
232.76	4.003
233.11	4.003
233.45	4
233.8	3.998
234.49	3.995
234.83	3.995
235.18	3.994
235.52	3.994
236.21	3.988
236.56	3.988
236.9	3.987
237.25	3.987
238.63	3.983
238.97	3.983
239.32	3.983
239.66	3.981
240.01	3.981
241.04	3.981
241.39	3.98
241.73	3.98
242.08	3.98
242.42	3.98
242.77	3.981
243.8	3.978
244.15	3.978
244.49	3.978
244.84	3.978
245.87	3.976
246.22	3.976
246.56	3.976
246.91	3.973
247.25	3.971
247.6	3.971
247.94	3.973
248.98	3.968
249.32	3.964
249.67	3.963
250.01	3.963
250.7	3.955
251.05	3.952
251.39	3.949
251.74	3.946
252.08	3.938
252.43	3.932
252.77	3.926
253.46	3.908
253.81	3.901
254.15	3.887
254.5	3.877
254.84	3.873
255.19	3.855
255.53	3.849
255.88	3.828
256.22	3.82
256.57	3.805
256.91	3.801
257.26	3.777
257.6	3.765
257.95	3.742
258.29	3.727
258.64	3.676
258.98	3.673
259.33	3.656
259.67	3.647
260.02	3.618
260.36	3.618
260.71	3.609
261.05	3.598
261.4	3.588
261.74	3.57
262.09	3.57
262.43	3.556
262.78	3.552
263.47	3.529
263.81	3.529
264.16	3.517
264.5	3.512
265.19	3.491
265.54	3.491
265.88	3.487
268.47	3.431
269.85	3.416
271.41	3.4
272.79	3.383
274.34	3.366
275.89	3.36
277.44	3.366
279	3.372
280.55	3.378
282.1	3.378
284	3.383
286.41	3.405
287.97	3.41
289.17	3.436
290.73	3.45
293.49	3.469
293.66	3.474
293.83	3.478
294	3.478
294.18	3.482
294.35	3.487
294.52	3.487
294.69	3.491
294.87	3.491
295.04	3.496
295.56	3.504
295.73	3.508
295.9	3.508
296.07	3.512
297.11	3.517
297.63	3.533
298.14	3.54
299.18	3.559
299.7	3.563
300.21	3.574
300.73	3.585
301.25	3.592
301.77	3.592
302.28	3.609
303.32	3.625
303.84	3.631
304.35	3.64
304.87	3.656
305.39	3.659
305.91	3.667
306.42	3.673
306.94	3.684
307.46	3.69
307.98	3.698
309.01	3.711
309.53	3.717
310.05	3.724
311.08	3.737
311.6	3.744
312.12	3.749
312.64	3.751
313.67	3.763
314.19	3.768
314.71	3.77
315.22	3.772
315.74	3.775
316.26	3.77
316.78	3.772
317.29	3.77
317.81	3.763
318.33	3.763
319.36	3.754
319.88	3.751
320.4	3.742
321.43	3.727
321.95	3.722
322.47	3.719
322.99	3.714
323.5	3.711
324.54	3.684
325.06	3.676
325.57	3.647
326.09	3.631
326.61	3.602
327.13	3.588
327.64	3.548
328.16	3.544
328.68	3.529
329.2	3.508
329.71	3.487
330.23	3.487
330.75	3.46
331.27	3.441
331.78	3.436
332.3	3.4
332.82	3.389
333.34	3.383
334.37	3.336
334.89	3.33
335.41	3.311
336.44	3.277
336.96	3.269
337.99	3.232
338.51	3.224
339.03	3.199
340.06	3.172
340.58	3.154
341.1	3.163
