Uv/Vis Spectrum: Ethene, 1,2-dibromo-, (E)-
Formula: C2H2Br2
CAS: 590-12-5
Boiling point: 107-110
Instrument: Zeiss PMQ II
Origin: INSTITUTE OF ENERGY PROBLEMS OF CHEMICAL PHYSICS, RAS
Wavelength (nm)	Logarithm epsilon
182.03	3.582
182.1	3.584
182.17	3.586
182.24	3.588
182.31	3.588
182.38	3.59
182.45	3.593
182.53	3.593
182.6	3.595
182.67	3.597
182.74	3.597
182.81	3.599
182.88	3.601
182.95	3.601
183.09	3.601
183.45	3.605
183.81	3.61
184.17	3.612
184.53	3.614
184.9	3.616
185.26	3.616
185.63	3.616
186	3.616
186.36	3.616
186.74	3.616
187.11	3.616
187.48	3.616
187.86	3.614
188.23	3.614
188.61	3.614
188.99	3.616
189.37	3.623
189.75	3.627
190.14	3.633
190.52	3.637
190.91	3.646
191.3	3.655
191.69	3.659
192.08	3.67
192.48	3.678
192.87	3.689
193.27	3.697
193.67	3.708
194.07	3.719
194.47	3.727
194.87	3.734
195.28	3.742
195.69	3.753
196.09	3.763
196.51	3.772
196.92	3.783
197.33	3.791
197.75	3.802
198.16	3.81
198.58	3.821
199	3.832
199.43	3.84
199.85	3.845
200.28	3.853
200.71	3.855
201.14	3.862
201.57	3.87
202	3.875
202.44	3.885
202.87	3.894
203.31	3.904
203.75	3.915
204.2	3.924
204.64	3.928
205.09	3.934
205.54	3.936
205.99	3.936
206.44	3.936
206.9	3.941
207.35	3.943
207.81	3.945
208.27	3.947
208.74	3.949
209.2	3.951
209.67	3.951
210.14	3.949
210.61	3.947
211.08	3.945
211.56	3.939
212.04	3.932
212.52	3.922
213	3.904
213.48	3.887
213.97	3.87
214.46	3.847
214.95	3.821
215.44	3.8
215.94	3.772
216.43	3.749
216.93	3.727
217.44	3.708
217.94	3.689
218.45	3.672
218.96	3.646
219.47	3.62
219.98	3.59
220.5	3.558
221.02	3.52
221.54	3.479
222.06	3.432
222.59	3.385
223.12	3.343
223.65	3.294
224.19	3.242
224.72	3.191
225.26	3.146
225.8	3.097
226.35	3.061
226.89	3.025
227.44	2.993
228	2.965
228.55	2.943
229.11	2.922
229.67	2.905
230.23	2.89
230.8	2.873
231.37	2.858
231.94	2.843
232.51	2.832
233.09	2.822
233.67	2.811
234.25	2.802
234.84	2.792
235.43	2.783
236.02	2.773
236.61	2.762
237.21	2.751
237.81	2.738
238.42	2.728
239.02	2.717
239.63	2.706
240.25	2.694
240.86	2.676
241.48	2.664
242.1	2.644
242.73	2.632
243.36	2.612
243.99	2.593
244.63	2.574
245.27	2.555
245.91	2.533
246.55	2.512
247.2	2.491
247.86	2.465
248.51	2.439
249.17	2.414
249.83	2.38
250.5	2.356
251.17	2.326
251.84	2.296
252.52	2.264
253.2	2.228
253.89	2.194
254.58	2.155
255.27	2.115
255.96	2.072
256.66	2.032
257.37	1.972
258.07	1.92
258.78	1.876
259.5	1.824
260.22	1.771
260.94	1.724
261.67	1.668
262.4	1.619
263.14	1.566
263.88	1.515
264.62	1.453
265.37	1.397
266.12	1.34
266.88	1.28
267.6	1.209
268.35	1.137
269.12	1.067
269.94	1.009
