Uv/Vis Spectrum: 1,2-Butadiene
Formula: C4H6
CAS: 590-19-2
Melting point: -136.2
Boiling point: 10.9
Instrument: Beckman DU
Origin: INSTITUTE OF ENERGY PROBLEMS OF CHEMICAL PHYSICS, RAS
Wavelength (nm)	Logarithm epsilon
170	4.17
171	4.15
172	4.16
173	4.17
174	4.2
175	4.23
176	4.25
177	4.26
178	4.25
179	4.16
180	4.01999
181	3.89
182	3.76
183	3.64
184	3.56
185	3.54
186	3.52
187	3.52
188	3.49
189	3.43
190	3.36999
191	3.31
192	3.25
193	3.21
194	3.14
195	3.08
196	3.02
197	2.96
198	2.91
199	2.85
