Uv/Vis Spectrum: Benzene, iodo-
Formula: C6H5I
CAS: 591-50-4
Melting point: -31.3
Boiling point: 188.4
Instrument: Unicam SP 500 or Hilger Ultrascan
Origin: INSTITUTE OF ENERGY PROBLEMS OF CHEMICAL PHYSICS, RAS
Wavelength (nm)	Logarithm epsilon
310.076	1.09867
309.37	1.13267
308.666	1.16667
307.965	1.20066
307.265	1.23465
306.569	1.26862
305.875	1.30257
305.184	1.33651
305.184	1.33651
304.379	1.36971
303.592	1.40293
302.822	1.43616
302.065	1.46939
301.321	1.50262
300.588	1.53584
299.863	1.56905
299.144	1.60224
298.43	1.63541
297.72	1.66854
297.01	1.70163
296.3	1.73468
295.589	1.76768
294.873	1.80063
294.873	1.80063
293.858	1.84045
292.844	1.88027
291.833	1.92009
290.826	1.9599
290.826	1.9599
289.793	1.99147
288.182	2.04628
287.166	2.07768
287.166	2.07768
286.219	2.11621
285.176	2.15492
284.086	2.19329
282.997	2.23083
282.997	2.23083
282.003	2.27411
281.01	2.31739
280.02	2.36067
279.035	2.40395
279.035	2.40395
278	2.44057
276.909	2.47627
275.784	2.5114
274.647	2.54632
273.52	2.58139
272.422	2.61695
272.422	2.61695
271.606	2.63239
270.59	2.65496
270.094	2.66833
270.094	2.66833
268.619	2.69731
267.43	2.73168
266.175	2.76494
264.521	2.79062
264.521	2.79062
263.299	2.79304
262.709	2.79501
262.24	2.79822
262.24	2.79822
260.859	2.82815
259.583	2.85267
257.451	2.85415
257.451	2.85415
256.082	2.83412
254.797	2.82821
252.808	2.82889
252.808	2.82889
251.841	2.8196
251.058	2.80682
249.975	2.79583
249.975	2.79583
249.938	2.79345
249.894	2.79096
249.846	2.78841
249.846	2.78841
249.126	2.78426
248.468	2.77976
247.537	2.77477
247.537	2.77477
246.849	2.76238
245.635	2.75356
244.441	2.74941
244.441	2.74941
242.853	2.78658
241.852	2.83246
241.168	2.87672
241.168	2.87672
240.789	2.90851
240.441	2.94035
240.124	2.97223
239.833	3.00416
239.568	3.03612
239.326	3.06811
239.106	3.10013
238.905	3.13219
238.722	3.16426
238.555	3.19636
238.402	3.22847
238.261	3.2606
238.131	3.29275
238.009	3.3249
237.894	3.35706
237.784	3.38922
237.676	3.42138
237.571	3.45353
237.465	3.48568
237.357	3.51782
237.245	3.54995
237.127	3.58206
237.002	3.61415
237.002	3.61415
236.826	3.64752
236.659	3.68102
236.495	3.71461
236.333	3.74827
236.17	3.78198
236.002	3.81571
235.828	3.84944
235.643	3.88315
235.446	3.91681
235.234	3.95039
235.003	3.98388
234.752	4.01725
234.476	4.05047
234.175	4.08353
233.845	4.1164
233.845	4.1164
233.775	4.11863
233.702	4.12075
233.623	4.12282
233.623	4.12282
233.429	4.12284
233.234	4.12286
233.04	4.12287
233.04	4.12287
232.614	4.10115
232.069	4.08548
230.914	4.08261
230.914	4.08261
230.3	4.10016
229.518	4.12594
229.134	4.14347
229.134	4.14347
228.729	4.14351
228.319	4.14355
227.908	4.14359
227.908	4.14359
227.821	4.13889
227.66	4.13363
227.573	4.12877
227.573	4.12877
226.461	4.09816
225.31	4.05693
224.086	4.01729
222.751	3.99146
222.751	3.99146
222.576	3.98027
222.324	3.96738
221.948	3.9562
221.948	3.9562
221.36	3.91635
220.94	3.89036
220.326	3.85597
220.326	3.85597
219.661	3.82722
218.957	3.79864
218.049	3.77093
218.049	3.77093
217.506	3.75374
216.574	3.73745
215.697	3.72201
215.697	3.72201
214.116	3.72139
213.014	3.72668
211.82	3.74702
211.82	3.74702
210.755	3.78376
209.947	3.82528
209.298	3.8686
208.708	3.91077
208.708	3.91077
208.091	3.96314
207.638	4.00147
207.266	4.03223
206.895	4.06191
206.446	4.09697
205.841	4.1439
205.841	4.1439
205.24	4.17933
204.582	4.21303
203.879	4.24564
203.14	4.27777
202.378	4.31002
202.378	4.31002
201.482	4.33662
201.05	4.34882
200.708	4.35709
200.708	4.35709
199.44	4.37457
198.055	4.39252
196.727	4.40574
196.727	4.40574
195.533	4.42278
194.392	4.42585
193.308	4.41791
192.285	4.40189
191.327	4.38075
190.436	4.35741
190.436	4.35741
189.626	4.32697
188.89	4.30086
188.073	4.28
187.027	4.26531
185.61	4.25771
