Uv/Vis Spectrum: Cyclohexene, 1-methyl-
Formula: C7H12
CAS: 591-49-1
Melting point: -120.4
Boiling point: 110.3
Instrument: n.i.g.
Origin: INSTITUTE OF ENERGY PROBLEMS OF CHEMICAL PHYSICS, RAS
Wavelength (nm)	Logarithm epsilon
176.734	3.78825
176.754	3.77606
176.809	3.788
176.888	3.78769
176.973	3.78725
177.021	3.78105
177.337	3.78467
177.654	3.78883
177.654	3.78883
179.579	3.80388
181.286	3.81667
182.789	3.82751
184.1	3.83663
185.231	3.84425
186.194	3.85057
187.003	3.85573
187.668	3.85989
188.203	3.86318
191.32	3.86399
191.726	3.86133
192.665	3.85671
192.665	3.85671
193.396	3.84804
194.098	3.83859
194.772	3.82836
195.42	3.81735
196.046	3.80555
196.651	3.79296
197.237	3.77958
197.806	3.76541
198.362	3.75043
198.905	3.73465
199.438	3.71804
199.963	3.70062
200.483	3.68237
201	3.66328
201.516	3.64337
202.032	3.62263
202.032	3.62263
202.674	3.59999
203.317	3.5761
203.959	3.55082
204.602	3.52398
205.244	3.49537
205.887	3.46474
