Uv/Vis Spectrum: 4-Thiouracil
Formula: C4H4N2OS
CAS: 591-28-6
Instrument: Baushe and Lomb spectrograph
Origin: INSTITUTE OF ENERGY PROBLEMS OF CHEMICAL PHYSICS, RAS
Wavelength (nm)	Logarithm epsilon
246.75	3.503
248.58	3.489
251.26	3.454
251.9	3.446
252.55	3.435
253.19	3.43
254.48	3.413
255	3.407
255.77	3.395
256.41	3.383
256.99	3.376
257.7	3.358
258.34	3.348
258.99	3.335
259.7	3.322
260.52	3.304
261.56	3.284
262.21	3.268
262.85	3.26
263.5	3.248
264.29	3.232
265.43	3.208
266.07	3.199
266.72	3.184
267.36	3.175
268.18	3.167
269.54	3.155
270.71	3.15
271.87	3.144
272.61	3.141
273.24	3.14
273.97	3.14
274.96	3.141
275.78	3.142
276.38	3.144
277.13	3.146
277.67	3.149
278.31	3.154
279.03	3.163
280.89	3.189
281.38	3.197
282.01	3.21
282.82	3.226
283.47	3.248
284.11	3.268
285.4	3.299
286.07	3.314
286.7	3.329
287.24	3.346
289.26	3.398
290.03	3.427
290.55	3.443
291.2	3.462
291.84	3.482
292.48	3.498
293.19	3.525
293.91	3.55
294.42	3.566
295.06	3.582
295.9	3.612
296.63	3.637
297.17	3.662
297.64	3.682
298.2	3.703
298.92	3.732
299.63	3.756
300.33	3.783
300.86	3.802
301.42	3.821
302.15	3.838
302.77	3.858
303.31	3.876
303.95	3.894
304.4	3.91
305.21	3.933
305.91	3.951
306.36	3.967
306.9	3.985
307.35	4
308.89	4.05
310.06	4.081
311.6	4.106
312.45	4.117
313.31	4.127
314.17	4.134
315.03	4.144
315.85	4.152
316.75	4.161
317.61	4.165
319.33	4.178
320.18	4.183
321.9	4.194
322.76	4.199
324.48	4.209
325.34	4.212
327.06	4.218
327.91	4.218
328.77	4.218
329.63	4.217
330.49	4.214
332.21	4.208
333.07	4.205
334.79	4.196
335.64	4.192
336.46	4.187
337.36	4.178
338.09	4.169
339.08	4.147
339.94	4.133
340.8	4.112
341.52	4.093
342.79	4.043
343.35	4.019
344.13	3.982
344.67	3.957
345.03	3.939
345.95	3.91
346.6	3.886
347.24	3.868
347.88	3.848
348.45	3.825
348.99	3.803
349.72	3.773
350.39	3.733
351.1	3.692
351.75	3.65
352.39	3.613
353.04	3.582
353.57	3.558
354.02	3.532
354.97	3.474
