Uv/Vis Spectrum: 1,4-Pentadiene
Formula: C5H8
CAS: 591-93-5
Melting point: -148.8
Boiling point: 26
Instrument: Fluorite prism vacuum spectrograph
Origin: INSTITUTE OF ENERGY PROBLEMS OF CHEMICAL PHYSICS, RAS
Wavelength (nm)	Logarithm epsilon
196.477	2.96235
196.192	3.00756
196.085	3.02917
195.991	3.03894
195.79	3.0682
195.695	3.08707
195.6	3.1041
195.493	3.12149
195.398	3.14592
195.303	3.16083
195.196	3.18318
195.102	3.19773
195.005	3.22472
194.91	3.24409
194.804	3.26263
194.708	3.28597
194.614	3.29749
194.506	3.31907
194.412	3.32976
194.318	3.34504
194.212	3.35921
194.116	3.383
194.019	3.40554
193.924	3.42246
193.818	3.43875
193.721	3.46233
193.624	3.48471
193.518	3.49885
193.423	3.51255
193.33	3.51943
193.225	3.5325
193.129	3.54822
193.036	3.55753
192.931	3.56663
192.837	3.57873
192.744	3.58707
192.649	3.6013
192.544	3.61215
192.451	3.62019
192.357	3.63059
192.252	3.64349
192.158	3.65335
192.066	3.66067
191.958	3.67946
191.863	3.691
191.769	3.70224
191.664	3.71293
191.57	3.72564
191.479	3.72986
191.385	3.73991
191.281	3.74782
191.187	3.75956
191.093	3.77099
190.988	3.78014
190.897	3.78561
190.8	3.80168
190.697	3.80856
190.605	3.81553
190.512	3.82379
190.411	3.82875
190.32	3.83365
190.226	3.84331
190.132	3.85425
190.029	3.86181
189.937	3.86799
189.845	3.87532
189.741	3.8841
189.647	3.89543
189.555	3.90248
189.448	3.91611
189.357	3.9214
189.268	3.9241
189.178	3.92929
189.072	3.93967
188.979	3.94846
188.886	3.95707
188.785	3.96305
188.693	3.96909
188.601	3.97618
188.5	3.98191
188.409	3.9877
188.319	3.99327
188.217	3.99891
188.129	4.00104
188.041	4.00434
187.95	4.00984
187.85	4.01514
187.76	4.01949
187.672	4.02265
187.573	4.02579
187.485	4.02879
187.397	4.03189
187.299	4.03398
187.212	4.03704
187.124	4.04008
187.025	4.04406
186.938	4.0461
186.85	4.05003
186.762	4.05298
186.663	4.05685
186.576	4.05975
186.487	4.06448
186.389	4.06836
186.302	4.07119
186.214	4.0749
186.117	4.07769
186.029	4.08135
185.941	4.08497
185.844	4.08769
185.756	4.09224
185.669	4.09577
185.581	4.10013
185.482	4.10454
185.396	4.10715
185.309	4.11139
185.21	4.11569
185.121	4.12157
185.034	4.12578
184.93	4.13476
184.842	4.13961
184.754	4.14441
184.665	4.14992
184.57	4.15226
184.483	4.15609
184.397	4.15914
184.3	4.16227
184.215	4.16455
184.129	4.16827
184.034	4.16979
183.95	4.17123
183.866	4.17275
183.772	4.17426
183.689	4.17568
183.604	4.17789
183.52	4.17938
183.427	4.18079
183.344	4.18157
183.261	4.18297
183.167	4.18444
183.085	4.18513
183.002	4.1866
182.909	4.18798
182.827	4.18875
182.744	4.19013
182.652	4.19089
182.569	4.19226
182.488	4.19294
182.405	4.19438
182.313	4.19505
182.231	4.19649
182.149	4.19716
182.058	4.19792
181.977	4.19859
181.894	4.20001
181.803	4.20068
181.722	4.20134
181.641	4.20201
181.56	4.20275
181.47	4.20341
181.218	4.20481
181.056	4.20687
180.966	4.20753
180.886	4.20818
180.805	4.20892
180.636	4.20956
180.556	4.21021
180.476	4.21086
180.386	4.21159
180.306	4.21224
180.226	4.21289
180.137	4.21362
180.057	4.21426
179.978	4.21491
179.888	4.21563
179.809	4.21627
179.73	4.21691
179.641	4.21755
179.561	4.21827
179.482	4.21891
179.403	4.22027
179.314	4.22091
179.234	4.22226
179.066	4.22424
178.987	4.22487
178.908	4.22614
178.82	4.22684
178.741	4.22747
178.663	4.22809
178.254	4.23073
178.176	4.23135
177.217	4.23127
177.065	4.23064
176.904	4.22992
176.828	4.22991
176.668	4.22864
176.594	4.22792
176.519	4.22728
176.434	4.22664
176.359	4.22592
176.126	4.224
176.052	4.22328
175.967	4.22327
175.892	4.22262
175.818	4.22198
175.661	4.21996
175.588	4.21858
175.513	4.21793
175.43	4.2172
175.357	4.21589
175.283	4.21524
175.054	4.21179
174.972	4.21039
174.752	4.20765
174.67	4.20632
174.598	4.2049
174.524	4.20423
174.443	4.2028
174.297	4.20069
174.215	4.20001
174.143	4.19857
174.07	4.19789
173.988	4.19721
173.915	4.19644
173.843	4.19575
173.771	4.1943
173.617	4.19292
173.463	4.19145
173.39	4.19075
173.317	4.19074
173.092	4.18857
173.011	4.18787
172.939	4.18708
172.867	4.18638
172.795	4.18568
172.641	4.18567
172.417	4.18416
172.264	4.18345
172.041	4.18194
171.898	4.18122
171.747	4.17971
171.604	4.1797
171.453	4.17827
171.382	4.17826
171.231	4.17745
171.09	4.17602
170.939	4.176
170.648	4.17446
170.499	4.17373
170.28	4.17218
170.139	4.17217
169.921	4.17143
169.703	4.16988
169.486	4.16913
169.338	4.16839
169.2	4.16756
168.408	4.16301
168.27	4.163
168.125	4.16216
167.488	4.15673
166.658	4.14724
166.45	4.14407
165.764	4.13274
165.69	4.13194
165.625	4.13026
165.485	4.12777
164.947	4.11765
164.882	4.11601
164.808	4.11518
164.743	4.11425
164.678	4.11342
163.869	4.10029
163.732	4.09761
163.668	4.09675
162.805	4.08132
162.742	4.07942
162.678	4.07942
162.606	4.07852
161.887	4.06714
161.825	4.0653
161.628	4.06239
160.588	4.04957
160.518	4.04956
159.497	4.04039
159.306	4.03829
159.237	4.03827
