Uv/Vis Spectrum: 1,2-Pentadiene
Formula: C5H8
CAS: 591-95-7
Melting point: -137.3
Boiling point: 44.9
Instrument: Beckman DU
Origin: INSTITUTE OF ENERGY PROBLEMS OF CHEMICAL PHYSICS, RAS
Wavelength (nm)	Logarithm epsilon
170	3.2
171	3.19
172	3.19
173	3.2
174	3.24
175	3.29
176	3.34
177	3.38
178	3.37
179	3.32
180	3.32
181	3.34
182	3.13
183	2.94
184	2.84
185	2.76
186	2.7
187	2.66
188	2.62
189	2.57
190	2.5
191	2.44
192	2.37
193	2.31
194	2.25
195	2.22
196	2.19
197	2.15
198	2.08
199	2.02
