Uv/Vis Spectrum: Phenol, 3,5-dichloro-
Formula: C6H4Cl2O
CAS: 591-35-5
Melting point: 68
Boiling point: 233
Instrument: n.i.g.
Origin: INSTITUTE OF ENERGY PROBLEMS OF CHEMICAL PHYSICS, RAS
Wavelength (nm)	Logarithm epsilon
205.398	4.46083
205.805	4.4441
206.235	4.42446
207.054	4.39133
209.231	4.29212
209.633	4.27028
210.036	4.24828
210.439	4.22619
212.187	4.12294
212.644	4.09866
213.11	4.0743
213.579	4.04978
216.348	3.96154
216.675	3.95368
217.325	3.94256
218.858	3.91864
223.93	3.88732
224.754	3.88376
225.486	3.88052
226.596	3.87821
226.861	3.87643
227.081	3.87645
227.309	3.87648
227.54	3.87651
228.914	3.87269
229.03	3.8727
229.146	3.87272
229.262	3.87273
232.361	3.8546
233.85	3.83747
235.039	3.81838
236.332	3.79083
238.244	3.6934
238.854	3.65857
239.53	3.62512
239.995	3.57309
240.16	3.57953
240.328	3.58582
240.503	3.59203
240.503	3.59203
241.553	3.50176
241.907	3.47556
242.261	3.44919
242.615	3.42275
244.184	3.3064
244.556	3.27584
244.933	3.24512
245.316	3.21433
246.471	3.09974
246.843	3.06919
247.22	3.03847
247.603	3.00767
248.761	2.88147
248.903	2.85868
249.135	2.82953
249.475	2.80823
250.532	2.68601
250.713	2.66437
250.936	2.64007
251.233	2.5957
252.305	2.48292
252.49	2.45866
252.734	2.43295
253.091	2.38717
254.078	2.28019
254.841	2.24361
255.335	2.22409
255.984	2.20492
257.012	2.19379
257.063	2.19198
257.118	2.19017
257.179	2.18836
257.362	2.18621
258.431	2.19141
259.458	2.2033
260.449	2.21672
262.827	2.29979
263.673	2.33774
264.025	2.35539
264.183	2.36785
266.042	2.47336
266.498	2.49991
266.955	2.52637
267.412	2.55267
269.271	2.65819
269.716	2.68583
270.168	2.71348
270.623	2.74113
272.481	2.85245
272.926	2.87828
273.379	2.90412
273.835	2.92995
275.697	3.02602
276.089	3.04677
276.485	3.06751
276.889	3.08825
278.411	3.15451
278.465	3.15633
278.526	3.15816
278.591	3.15998
279.261	3.19238
279.769	3.21448
280.281	3.23642
280.8	3.25828
283.531	3.31888
284.185	3.3034
284.787	3.28824
285.693	3.27595
285.941	3.27779
286.89	3.28491
287.677	3.29774
288.68	3.30826
288.68	3.30826
288.851	3.30574
289.03	3.30322
289.212	3.3007
290.608	3.21048
290.783	3.17672
290.962	3.14289
291.147	3.10889
291.855	2.99607
291.913	2.95461
292.006	2.93227
292.058	2.91332
292.433	2.80808
292.544	2.77796
292.664	2.74784
292.787	2.71773
293.328	2.60851
293.386	2.58714
293.523	2.56481
293.696	2.52578
294.237	2.41657
294.297	2.39286
294.433	2.3711
294.605	2.33602
