Uv/Vis Spectrum: Pyridine, 3,5-dimethyl-
Formula: C7H9N
CAS: 591-22-0
Melting point: -6.6
Boiling point: 172
Instrument: Unicam SP 500
Origin: INSTITUTE OF ENERGY PROBLEMS OF CHEMICAL PHYSICS, RAS
Wavelength (nm)	Logarithm epsilon
233.056	2.63114
233.087	2.63949
233.119	2.64769
233.154	2.65572
233.154	2.65572
233.547	2.66516
233.94	2.6751
234.333	2.68546
234.725	2.69617
235.116	2.70716
235.507	2.71839
235.897	2.72979
236.287	2.74131
236.677	2.75291
237.067	2.76454
237.456	2.77616
237.845	2.78774
238.234	2.79924
238.623	2.81064
239.012	2.82192
239.401	2.83305
239.79	2.84401
240.179	2.85477
240.568	2.86534
240.957	2.87569
241.346	2.8858
241.736	2.89568
242.126	2.9053
242.516	2.91467
242.582	2.91461
242.582	2.91461
242.59	2.919
242.601	2.92334
242.613	2.92763
242.613	2.92763
242.685	2.91262
242.737	2.93404
242.789	2.91046
242.862	2.94009
242.896	2.90801
242.989	2.94593
242.989	2.94593
243.154	2.94314
243.425	2.94558
243.785	2.95243
244.215	2.96276
244.696	2.97564
245.21	2.99017
245.737	3.00554
246.26	3.02102
246.76	3.03596
246.987	3.05532
247.072	3.05527
247.156	3.05522
247.217	3.04983
247.241	3.05517
247.614	3.06215
247.931	3.07246
248.15	3.08037
248.15	3.08037
248.473	3.08534
248.798	3.09024
249.125	3.0951
249.125	3.0951
249.49	3.11008
249.872	3.12401
250.265	3.13717
250.662	3.14985
251.059	3.16228
251.449	3.17467
251.828	3.18721
252.19	3.20007
252.529	3.2134
252.529	3.2134
252.877	3.22435
253.221	3.2352
253.561	3.24593
253.899	3.25654
254.233	3.26703
254.565	3.2774
254.894	3.28765
255.221	3.29777
255.546	3.30777
255.869	3.31764
256.19	3.32739
256.51	3.33701
256.828	3.3465
257.145	3.35587
257.461	3.36511
257.776	3.37423
258.091	3.38322
258.405	3.39209
258.719	3.40083
259.034	3.40945
259.348	3.41794
259.663	3.42632
259.663	3.42632
260.155	3.43713
260.649	3.44767
261.145	3.45797
261.145	3.45797
262.112	3.47349
262.841	3.48481
263.367	3.49273
263.725	3.49797
263.952	3.50111
264.083	3.50271
264.155	3.50329
264.202	3.50337
264.202	3.50337
264.808	3.51329
265.222	3.51952
265.536	3.52417
265.841	3.52923
265.841	3.52923
266.352	3.53268
266.784	3.53507
267.17	3.53615
267.54	3.53568
267.928	3.5334
268.366	3.529
268.885	3.52217
268.885	3.52217
269.227	3.51424
269.569	3.50618
269.911	3.49796
269.911	3.49796
270.185	3.48882
270.452	3.4794
270.719	3.46988
270.993	3.46043
271.282	3.45126
271.591	3.44259
271.93	3.43465
272.304	3.4277
272.72	3.42199
272.72	3.42199
273.215	3.41933
273.643	3.4158
274.016	3.41103
274.346	3.40463
274.644	3.39619
274.923	3.3852
275.193	3.37111
275.467	3.35322
275.467	3.35322
275.491	3.35223
275.517	3.35092
275.547	3.34884
275.587	3.34553
275.642	3.3405
275.714	3.33322
275.81	3.32308
275.933	3.30939
276.088	3.2913
276.279	3.26771
276.51	3.23712
276.787	3.1974
277.113	3.1453
277.493	3.07543
277.493	3.07543
277.617	3.06151
277.762	3.03784
278.052	2.97949
278.052	2.97949
278.288	2.94458
278.488	2.90349
278.827	2.82534
278.827	2.82534
279.084	2.78545
279.353	2.72296
280.206	2.51262
280.685	2.41858
281.256	2.2773
281.256	2.2773
281.759	2.20698
282.32	2.06133
