Uv/Vis Spectrum: 2-Nitropyrrole
Formula: C4H4N2O2
CAS: 5919-26-6
Instrument: Spectrograph ISP-22
Origin: INSTITUTE OF ENERGY PROBLEMS OF CHEMICAL PHYSICS, RAS
Wavelength (nm)	Logarithm epsilon
334.87	3.647
337.18	3.662
339.48	3.678
341.79	3.693
344.38	3.705
346.4	3.724
348.7	3.74
351.3	3.744
353.6	3.759
355.91	3.771
358.5	3.767
360.81	3.755
362.82	3.736
364.84	3.713
367.15	3.693
369.45	3.674
371.76	3.654
374.06	3.635
376.37	3.616
378.67	3.6
380.69	3.577
383	3.557
385.3	3.538
