Uv/Vis Spectrum: 1-Hexene
Formula: C6H12
CAS: 592-41-6
Melting point: -139.7
Boiling point: 63.4
Instrument: Beckman DU
Origin: INSTITUTE OF ENERGY PROBLEMS OF CHEMICAL PHYSICS, RAS
Wavelength (nm)	Logarithm epsilon
170	4.02
171	4.02
172	4.02
173	4.02
174	4.02
175	4.02
176	4.02
177	4.02
178	4
179	3.97
180	3.93
181	3.89
182	3.85
183	3.81
184	3.76
185	3.7
186	3.65
187	3.57
188	3.51
189	3.43
190	3.35
191	3.27
192	3.19
193	3.11
194	3.02
195	2.93
196	2.84
197	2.74
198	2.65
199	2.56
