Uv/Vis Spectrum: N-[8-(formylmethylamino)-1-naphthalenyl]benzamide
Formula: C19H16N2O2
CAS: 59283-18-0
Melting point: 200-201
Instrument: Spectromom 203
Origin: INSTITUTE OF ENERGY PROBLEMS OF CHEMICAL PHYSICS, RAS
Wavelength (nm)	Logarithm epsilon
219.355	4.557
220.355	4.555
221.355	4.559
222.355	4.566
223.355	4.574
224.355	4.582
225.355	4.585
226.355	4.582
227.355	4.571
228.355	4.548
229.104	4.521
230.104	4.465
231.104	4.412
232.104	4.363
233.104	4.317
234.104	4.274
235.104	4.234
236.104	4.196
237.104	4.162
238.104	4.13
239.104	4.1
240.104	4.073
241.104	4.049
242.104	4.026
243.104	4.005
244.104	3.986
245.104	3.969
246.104	3.954
247.104	3.941
248.104	3.929
249.104	3.918
250.104	3.909
251.104	3.901
252.104	3.894
253.104	3.888
254.104	3.883
255.104	3.88
256.104	3.877
257.104	3.875
258.104	3.873
259.104	3.873
260.104	3.873
261.104	3.873
262.104	3.874
263.104	3.875
264.104	3.877
265.104	3.879
266.104	3.881
267.104	3.884
268.104	3.887
269.104	3.889
270.104	3.892
271.104	3.896
272.104	3.899
273.104	3.902
274.104	3.905
275.104	3.908
276.104	3.911
277.104	3.914
278.104	3.917
279.104	3.919
280.104	3.922
281.104	3.924
282.104	3.927
283.104	3.929
284.108	3.926
285.108	3.932
286.108	3.937
287.108	3.943
288.108	3.947
289.108	3.952
290.108	3.955
291.108	3.957
292.108	3.958
293.108	3.958
294.108	3.956
295.108	3.954
296.108	3.95
297.108	3.946
298.108	3.94
299.108	3.933
300.108	3.926
301.108	3.917
302.108	3.908
303.108	3.898
304.108	3.887
305.108	3.875
306.108	3.863
307.108	3.851
308.108	3.838
309.108	3.825
310.108	3.811
311.108	3.797
312.108	3.782
313.108	3.767
314.108	3.752
315.108	3.736
316.108	3.719
317.108	3.702
318.108	3.685
319.108	3.667
320.108	3.648
321.108	3.629
322.108	3.609
323.108	3.588
324.108	3.567
325.108	3.544
326.108	3.521
327.108	3.497
328.108	3.472
329.108	3.445
330.108	3.418
331.108	3.39
332.108	3.361
333.108	3.331
334.108	3.3
335.108	3.269
336.108	3.236
337.108	3.203
338.108	3.169
339.108	3.134
340.108	3.099
341.108	3.064
342.108	3.028
343.108	2.992
344.108	2.956
345.108	2.92
346.108	2.884
347.108	2.848
348.108	2.812
349.108	2.776
350.108	2.739
351.108	2.703
