Uv/Vis Spectrum: 5-phenyl-5H-[1] benzopyrano [2,3-b]pyridin-5-ol
Formula: C18H13NO2
CAS: 59303-77-4
Melting point: 215-216
Instrument: Spectromom-202
Origin: INSTITUTE OF ENERGY PROBLEMS OF CHEMICAL PHYSICS, RAS
Wavelength (nm)	Logarithm epsilon
216.959	4.369
217.959	4.366
218.959	4.362
219.959	4.357
220.959	4.352
221.959	4.347
222.959	4.341
223.959	4.336
224.959	4.33
225.959	4.325
226.959	4.319
227.959	4.314
228.959	4.309
229.959	4.304
230.959	4.299
231.959	4.293
232.959	4.288
233.959	4.282
234.959	4.276
235.959	4.269
236.959	4.262
237.959	4.253
238.959	4.244
239.959	4.234
240.959	4.223
241.959	4.211
242.782	4.203
243.782	4.185
244.782	4.172
245.782	4.159
246.782	4.142
247.782	4.116
248.782	4.078
249.782	4.021
250.089	4.001
251.089	3.937
252.042	3.877
253.042	3.819
254.042	3.775
255.042	3.746
256.042	3.73
257.042	3.726
258.042	3.73
259.042	3.739
260.042	3.75
261.042	3.76
262.042	3.769
263.042	3.776
264.042	3.783
265.042	3.796
265.166	3.796
266.166	3.803
267.166	3.81
268.166	3.815
269.166	3.819
270.166	3.822
271.166	3.825
272.166	3.826
273.166	3.828
274.166	3.828
275.166	3.829
276.166	3.83
277.166	3.83
278.166	3.83
279.166	3.83
280.099	3.827
281.099	3.83
282.099	3.83
283.099	3.828
284.099	3.826
285.099	3.824
286.099	3.823
287.099	3.822
288.099	3.822
289.099	3.821
290.099	3.819
291.099	3.816
292.099	3.809
293.099	3.799
294.099	3.785
295.099	3.765
296.099	3.74
297.099	3.71
298.099	3.675
299.099	3.636
300.099	3.594
301.099	3.551
302.099	3.511
302.301	3.5
303.301	3.447
304.301	3.39
305.301	3.336
306.301	3.29
307.301	3.253
308.284	3.227
309.284	3.213
310.284	3.197
311.284	3.182
312.284	3.168
313.284	3.155
314.284	3.144
315.284	3.135
316.284	3.126
