Uv/Vis Spectrum: Disulfide, bis(1-methylpropyl)
Formula: C8H18S2
CAS: 5943-30-6
Instrument: unknown
Origin: INSTITUTE OF ENERGY PROBLEMS OF CHEMICAL PHYSICS, RAS
Wavelength (nm)	Logarithm epsilon
217.94	2.912
218.78	2.882
219.63	2.849
220.31	2.815
221.15	2.782
222	2.748
222.85	2.715
223.69	2.681
224.54	2.652
225.55	2.622
226.57	2.597
227.58	2.568
228.6	2.538
229.62	2.513
230.97	2.496
232.49	2.492
233.85	2.509
235.03	2.53
236.22	2.551
237.4	2.572
238.58	2.593
239.94	2.614
241.29	2.626
242.82	2.626
244.17	2.639
245.69	2.643
247.22	2.643
248.74	2.639
250.26	2.635
251.78	2.622
253.31	2.614
254.66	2.597
256.18	2.589
257.54	2.568
258.89	2.551
260.08	2.53
261.43	2.509
262.62	2.484
263.97	2.463
265.32	2.442
266.34	2.417
267.35	2.391
268.54	2.366
269.72	2.341
270.91	2.32
271.92	2.295
272.77	2.265
273.95	2.24
275.14	2.215
276.15	2.19
277.04	2.167
278.05	2.14
279.06	2.108
280.05	2.081
280.96	2.044
281.57	2.018
282.39	1.982
283.09	1.955
283.94	1.921
284.45	1.888
284.95	1.86
285.63	1.82
286.14	1.787
286.65	1.749
287.15	1.716
287.48	1.684
288	1.644
288.51	1.611
289.02	1.577
289.35	1.539
289.69	1.501
290.2	1.464
290.54	1.426
290.88	1.388
291.39	1.354
291.89	1.317
292.23	1.279
292.74	1.245
293.25	1.212
293.75	1.178
294.26	1.145
294.94	1.111
295.45	1.077
296.12	1.044
296.63	1.006
297.31	0.973
298.15	0.939
298.66	0.905
299.51	0.876
300.19	0.842
301.03	0.809
301.71	0.775
302.39	0.742
303.23	0.712
304.08	0.679
304.92	0.645
305.6	0.612
306.62	0.582
307.29	0.549
308.31	0.519
309.15	0.486
310	0.456
310.85	0.423
311.69	0.393
312.54	0.364
