Uv/Vis Spectrum: Phosphine, trimethyl-
Formula: C3H9P
CAS: 594-09-2
Melting point: - 85
Boiling point: 37.5
Instrument: Beckman DU
Origin: INSTITUTE OF ENERGY PROBLEMS OF CHEMICAL PHYSICS, RAS
Wavelength (nm)	Logarithm epsilon
187.51	3.798
187.56	3.802
187.62	3.805
187.67	3.813
187.77	3.821
187.82	3.825
187.87	3.829
187.92	3.833
187.97	3.841
188.12	3.852
188.27	3.868
188.42	3.887
189.07	3.934
189.12	3.938
189.17	3.942
189.22	3.946
189.27	3.95
189.32	3.954
189.37	3.954
189.42	3.958
189.47	3.962
189.52	3.965
189.57	3.969
189.62	3.973
189.82	3.981
189.97	3.985
190.13	3.993
190.28	4.012
190.88	4.036
191.03	4.044
191.18	4.047
191.33	4.059
191.48	4.067
191.63	4.071
191.78	4.083
191.93	4.086
192.08	4.098
192.23	4.106
192.38	4.118
192.54	4.118
192.69	4.125
192.84	4.133
192.99	4.141
193.29	4.157
193.44	4.157
193.59	4.164
193.74	4.172
193.89	4.172
194.04	4.176
194.19	4.18
194.34	4.192
194.64	4.2
194.79	4.207
194.95	4.211
195.1	4.211
195.55	4.227
195.7	4.227
195.85	4.231
196	4.235
196.15	4.25
196.45	4.246
196.6	4.25
196.75	4.25
196.9	4.258
197.36	4.266
197.51	4.266
197.66	4.266
202.33	4.262
202.38	4.262
202.43	4.262
202.48	4.262
202.53	4.262
202.58	4.262
202.63	4.262
202.68	4.262
202.73	4.262
203.03	4.258
203.08	4.258
203.23	4.246
203.38	4.246
203.53	4.243
203.68	4.243
204.28	4.219
204.44	4.219
204.59	4.215
204.74	4.215
205.04	4.196
205.19	4.188
205.34	4.184
205.49	4.18
205.64	4.172
205.79	4.164
205.94	4.164
206.09	4.157
206.24	4.149
206.54	4.141
207.15	4.106
207.3	4.102
207.45	4.09
207.6	4.086
207.75	4.075
207.9	4.067
208.05	4.063
208.2	4.051
208.95	4.004
209	4.001
209.05	3.997
209.1	3.993
209.15	3.989
209.21	3.985
209.26	3.981
209.41	3.973
209.56	3.965
209.71	3.954
209.86	3.942
210.01	3.93
210.61	3.88
210.76	3.876
210.91	3.86
211.06	3.841
211.21	3.833
211.36	3.817
211.51	3.802
211.67	3.794
211.82	3.778
211.97	3.766
212.12	3.755
212.27	3.724
212.42	3.712
212.57	3.7
212.72	3.685
212.87	3.669
213.02	3.657
213.17	3.642
213.32	3.626
213.47	3.606
213.62	3.599
213.77	3.583
213.92	3.564
214.38	3.509
214.53	3.493
214.68	3.474
214.83	3.458
214.98	3.439
215.13	3.419
215.28	3.396
215.43	3.38
215.88	3.329
216.18	3.294
216.33	3.275
216.49	3.248
216.64	3.228
216.79	3.208
216.94	3.189
217.09	3.166
217.24	3.15
217.39	3.13
