Uv/Vis Spectrum: 2,3,4,5,6,7-hexafluoro-1H-indene
Formula: C9H2F6
CAS: 59485-92-8
Melting point: 33.2-34.2
Boiling point: 55-56/11 mm
Instrument: Specord UV-Vis
Origin: INSTITUTE OF ENERGY PROBLEMS OF CHEMICAL PHYSICS, RAS
Wavelength (nm)	Logarithm epsilon
224.218	3.591
225.718	3.57
227.218	3.561
228.718	3.563
230.218	3.572
231.718	3.586
233.218	3.605
234.718	3.626
236.218	3.65
237.718	3.677
239.218	3.705
240.718	3.735
242.218	3.765
243.689	3.792
245.189	3.809
246.689	3.833
248.189	3.849
249.689	3.852
251.189	3.84
252.689	3.818
254.189	3.788
255.562	3.757
257.062	3.728
258.562	3.686
260.062	3.638
261.562	3.568
263.062	3.462
264.562	3.328
266.149	3.215
267.649	3.134
269.149	3.082
270.64	3.061
272.14	3.044
273.64	3.042
275.14	3.051
276.64	3.066
278.14	3.082
279.64	3.096
281.14	3.104
282.64	3.106
284.14	3.1
284.154	3.1
285.654	3.084
287.154	3.074
288.654	3.063
290.154	3.046
291.654	3.023
293.154	2.985
294.654	2.917
295.765	2.828
296.523	2.765
298.023	2.574
299.523	2.381
