Uv/Vis Spectrum: Methionine
Formula: C5H11NO2S
CAS: 59-51-8
Melting point: 281 dec
Instrument: Beckman DU
Origin: INSTITUTE OF ENERGY PROBLEMS OF CHEMICAL PHYSICS, RAS
Wavelength (nm)	Logarithm epsilon
200.67	0.299
201.35	0.294
201.75	0.292
202.83	0.288
204.17	0.279
205.65	0.263
205.78	0.261
205.92	0.26
206.05	0.259
206.19	0.257
206.32	0.256
206.46	0.256
206.73	0.254
207.26	0.239
207.8	0.235
208.34	0.224
208.88	0.212
209.42	0.205
210.49	0.181
211.03	0.169
211.57	0.15
212.11	0.133
212.65	0.117
213.18	0.099
213.72	0.077
214.26	0.059
214.8	0.019
215.34	-0.001
215.87	-0.027
216.41	-0.053
216.95	-0.082
217.49	-0.108
218.03	-0.132
218.57	-0.161
219.1	-0.189
219.64	-0.222
220.18	-0.246
220.72	-0.271
221.26	-0.289
221.79	-0.312
222.33	-0.351
222.87	-0.367
223.41	-0.412
223.95	-0.43
224.48	-0.449
225.56	-0.519
226.1	-0.543
226.64	-0.568
227.17	-0.603
227.71	-0.632
228.25	-0.673
228.79	-0.707
229.33	-0.744
