Uv/Vis Spectrum: 2,6-dichloro-1-(4-chlorophenyl) naphthalene
Formula: C16H9Cl3
CAS: 59513-14-3
Melting point: 126-127
Instrument: EPS-3T
Origin: INSTITUTE OF ENERGY PROBLEMS OF CHEMICAL PHYSICS, RAS
Wavelength (nm)	Logarithm epsilon
254.271	3.855
255.271	3.87
256.271	3.883
257.271	3.887
258.271	3.877
259.271	3.85
260.27	3.805
261.27	3.764
262.27	3.739
263.27	3.726
264.27	3.721
265.27	3.723
266.27	3.731
267.336	3.748
268.336	3.772
269.336	3.797
270.336	3.819
271.336	3.838
272.336	3.851
273.336	3.857
274.336	3.857
275.469	3.85
276.469	3.843
277.469	3.841
278.469	3.843
279.469	3.851
280.469	3.867
281.345	3.886
282.401	3.911
283.345	3.931
284.345	3.936
285.439	3.913
286.439	3.892
287.439	3.877
288.439	3.867
289.333	3.865
290.333	3.866
291.333	3.871
292.333	3.868
293.333	3.851
294.333	3.819
295.333	3.774
296.399	3.713
297.599	3.635
298.799	3.568
299.865	3.502
300.533	3.457
301.533	3.407
302.533	3.355
303.533	3.299
304.533	3.237
305.533	3.171
306.533	3.103
307.731	3.026
308.731	2.975
309.731	2.924
310.731	2.884
311.731	2.86
312.731	2.854
313.731	2.863
314.93	2.883
315.93	2.893
316.93	2.9
317.93	2.901
318.93	2.893
319.93	2.872
320.93	2.839
322.027	2.79
323.027	2.753
324.027	2.724
325.027	2.71
326.027	2.713
327.027	2.732
328.027	2.764
329.027	2.809
329.819	2.847
330.479	2.886
331.154	2.92
331.668	2.946
332.159	2.956
332.795	2.946
333.164	2.92
333.517	2.869
334.177	2.776
334.97	2.667
336.027	2.503
337.083	2.29
338.253	2.094
339.194	1.994
