Uv/Vis Spectrum: Benzenamine, 4-methoxy-N-methyl-
Formula: C8H11NO
CAS: 5961-59-1
Melting point: 36
Instrument: Spekromom 201
Origin: INSTITUTE OF ENERGY PROBLEMS OF CHEMICAL PHYSICS, RAS
Wavelength (nm)	Logarithm epsilon
202.87	4.394
204.05	4.377
204.9	4.35
205.57	4.322
205.91	4.292
206.42	4.264
206.92	4.237
207.26	4.207
207.77	4.176
208.1	4.145
208.61	4.115
208.95	4.084
209.45	4.053
209.79	4.023
210.13	3.992
210.64	3.965
210.97	3.934
211.31	3.903
211.65	3.873
212.15	3.846
212.49	3.815
213	3.784
213.34	3.754
213.67	3.723
214.18	3.696
214.86	3.669
215.36	3.641
216.21	3.617
217.73	3.607
219.25	3.617
220.6	3.631
221.61	3.651
222.62	3.672
223.63	3.696
224.48	3.723
225.15	3.75
226	3.774
227.01	3.798
227.85	3.822
228.7	3.849
229.71	3.869
230.72	3.893
231.57	3.917
232.58	3.938
233.76	3.958
234.95	3.975
236.13	3.995
237.48	4.012
238.83	4.029
240.18	4.043
241.53	4.053
243.05	4.046
244.57	4.043
245.92	4.029
247.27	4.012
248.45	3.995
249.63	3.975
250.48	3.951
251.49	3.931
252.33	3.903
253.18	3.876
254.02	3.852
254.53	3.825
255.37	3.798
255.88	3.771
256.55	3.743
257.23	3.716
257.74	3.689
258.24	3.662
258.75	3.634
259.25	3.607
259.76	3.58
260.1	3.549
260.44	3.519
260.94	3.488
261.28	3.457
261.96	3.43
262.29	3.399
262.8	3.369
263.14	3.338
263.64	3.311
263.98	3.28
264.49	3.253
264.99	3.222
265.5	3.192
266.01	3.165
266.51	3.137
267.02	3.11
267.53	3.083
268.03	3.056
268.71	3.028
269.22	3.001
269.72	2.974
270.4	2.947
271.07	2.919
271.92	2.895
272.93	2.872
274.28	2.855
275.8	2.855
277.15	2.868
278.33	2.885
279.51	2.906
280.53	2.926
281.54	2.947
282.38	2.97
283.4	2.991
284.41	3.015
285.25	3.039
286.1	3.066
286.94	3.09
287.78	3.117
288.8	3.141
289.81	3.165
290.82	3.188
291.84	3.209
292.85	3.233
293.86	3.253
295.04	3.27
296.23	3.287
297.58	3.301
298.93	3.314
300.28	3.331
301.63	3.342
302.98	3.352
304.5	3.359
305.85	3.369
307.37	3.372
308.89	3.369
310.41	3.359
311.93	3.352
313.45	3.345
314.8	3.331
316.15	3.314
317.5	3.297
318.85	3.28
320.03	3.263
321.04	3.243
322.05	3.222
323.07	3.202
324.08	3.182
325.09	3.158
326.11	3.134
327.12	3.11
327.96	3.083
328.81	3.059
329.65	3.035
330.5	3.011
331.34	2.984
332.02	2.957
332.86	2.93
333.7	2.902
334.21	2.875
334.88	2.848
335.39	2.821
335.9	2.793
336.57	2.766
337.25	2.739
337.75	2.708
338.26	2.678
338.77	2.647
339.27	2.62
339.78	2.592
340.12	2.562
340.46	2.531
340.96	2.504
341.3	2.473
341.64	2.443
341.98	2.412
342.31	2.381
342.82	2.354
343.16	2.323
343.49	2.293
343.66	2.262
344.17	2.235
344.34	2.204
344.68	2.174
345.01	2.143
345.18	2.112
345.69	2.085
345.86	2.054
346.2	2.024
346.53	1.993
346.87	1.962
347.38	1.901
347.55	1.87
347.88	1.84
348.22	1.809
348.56	1.779
348.73	1.748
