Uv/Vis Spectrum: Niacin
Formula: C6H5NO2
CAS: 59-67-6
Melting point: 236.6
Boiling point: sub
Instrument: Beckman DU
Origin: INSTITUTE OF ENERGY PROBLEMS OF CHEMICAL PHYSICS, RAS
Wavelength (nm)	Logarithm epsilon
201.765	3.80032
201.853	3.80135
201.952	3.80238
202.963	3.81268
203.572	3.81653
203.616	3.81479
204.193	3.81993
204.836	3.82311
205.19	3.8262
206.318	3.82848
206.401	3.826
212.456	3.7859
212.609	3.79383
212.965	3.79084
213.424	3.78377
213.786	3.7643
213.883	3.77648
214.343	3.76873
214.65	3.76066
214.806	3.7576
214.972	3.75432
215.161	3.75059
215.164	3.73791
216.577	3.70736
216.699	3.71023
216.803	3.70818
216.918	3.70591
217.056	3.70318
217.211	3.69611
217.264	3.69506
217.328	3.69379
217.416	3.69208
217.929	3.67592
218.011	3.6733
218.15	3.66885
218.393	3.66179
218.647	3.65472
218.955	3.64564
219.057	3.64362
219.159	3.64161
219.262	3.63959
219.451	3.63637
220.885	3.5972
222.297	3.55643
222.701	3.53154
222.805	3.52949
222.921	3.52722
223.059	3.5245
223.675	3.5147
224.241	3.48409
224.345	3.48208
224.46	3.48006
224.598	3.47805
225.004	3.47265
226.27	3.43092
233.91	3.18882
234.346	3.18832
234.857	3.17825
235.126	3.17198
235.65	3.16849
236.577	3.161
236.693	3.15316
236.896	3.15116
237.215	3.15294
237.557	3.15427
237.909	3.15537
237.909	3.15537
238.061	3.15742
238.315	3.15543
238.381	3.15646
238.469	3.15748
238.568	3.15851
239.122	3.16773
239.564	3.17204
239.653	3.18009
240.297	3.18294
241.194	3.20522
241.947	3.20975
242.148	3.21688
242.349	3.22067
242.551	3.22401
242.688	3.23251
242.753	3.22712
243.004	3.23325
244.111	3.25776
244.137	3.26162
244.513	3.26797
244.578	3.26899
244.666	3.27002
244.766	3.27105
245.117	3.28125
245.269	3.28503
245.434	3.28836
245.546	3.29222
245.62	3.29147
245.87	3.30064
247.782	3.34253
247.983	3.34966
248.135	3.35344
248.259	3.35661
248.299	3.35677
248.486	3.35988
248.636	3.36599
248.789	3.36977
248.953	3.37311
249.14	3.37622
249.57	3.38974
250.044	3.4007
250.109	3.40173
250.197	3.40275
250.296	3.40378
250.697	3.41703
250.797	3.41979
250.856	3.42307
250.898	3.4221
250.999	3.42418
251.198	3.43334
251.349	3.43637
251.5	3.43918
251.652	3.44153
252.807	3.47214
253.008	3.47826
253.16	3.48204
253.324	3.48537
253.367	3.48898
253.511	3.48848
253.812	3.49867
253.914	3.50143
257.086	3.56207
257.288	3.56409
257.49	3.56589
257.545	3.5679
257.692	3.56723
258.909	3.58387
259.978	3.59881
260.816	3.61186
261.373	3.62866
261.491	3.62219
262.065	3.62894
262.353	3.62975
262.606	3.63127
263.132	3.62697
263.177	3.62833
263.844	3.61927
264.118	3.61183
264.63	3.60176
264.672	3.60326
264.732	3.59974
264.834	3.59773
264.936	3.59571
265.143	3.5856
265.245	3.58355
265.348	3.58127
265.45	3.57854
265.656	3.57147
265.727	3.57943
265.811	3.56841
265.977	3.56513
266.167	3.5614
266.321	3.55534
266.425	3.55329
266.541	3.55101
266.679	3.54829
266.987	3.53819
267.073	3.54695
267.104	3.53588
267.245	3.53312
267.396	3.53013
267.704	3.52105
267.82	3.52001
267.96	3.51876
268.111	3.51705
268.368	3.50796
268.419	3.50665
268.471	3.50489
268.522	3.50291
268.775	3.50497
268.775	3.50497
269.042	3.49058
269.215	3.4843
269.444	3.48072
269.444	3.48072
269.445	3.47768
269.445	3.47768
269.457	3.48448
269.494	3.4878
269.541	3.49088
269.598	3.47462
269.752	3.47134
269.905	3.4676
270.06	3.46052
270.113	3.45948
270.177	3.45821
270.264	3.45649
270.42	3.44739
273.625	3.15866
273.776	3.13753
273.938	3.13034
274.093	3.12326
274.202	3.10903
274.239	3.09858
274.322	3.09458
274.464	3.07969
274.619	3.07261
274.62	3.07159
274.62	3.07058
274.62	3.06956
274.707	3.05971
274.776	3.05944
275.181	3.02092
275.356	3.00673
275.66	2.9822
275.947	2.95379
276.145	2.94354
276.561	2.90041
276.635	2.90494
276.716	2.89333
277.13	2.8664
277.187	2.85455
277.631	2.82791
277.658	2.81531
278.129	2.77585
278.138	2.78946
278.284	2.76877
278.65	2.75105
278.807	2.72826
279.167	2.71267
279.69	2.67433
279.852	2.64725
280.008	2.63713
280.008	2.63611
280.009	2.6351
280.009	2.63408
280.216	2.62397
280.216	2.62295
280.216	2.62194
280.217	2.62092
280.219	2.636
280.373	2.60979
280.373	2.60877
280.374	2.60776
280.374	2.60674
280.53	2.59662
280.753	2.5977
280.86	2.56999
281.212	2.54291
281.293	2.55941
281.575	2.51561
281.781	2.50853
281.838	2.52113
282.389	2.48285
282.561	2.45749
282.946	2.44457
283.341	2.40616
283.508	2.40628
284.076	2.36799
284.121	2.35465
284.649	2.32967
284.902	2.30303
285.059	2.28987
285.228	2.29133
285.334	2.27236
285.632	2.2544
285.813	2.25297
285.941	2.23623
286.098	2.22509
286.149	2.22276
286.201	2.21999
286.253	2.21699
286.404	2.21457
286.461	2.20485
286.723	2.18764
286.996	2.17043
287	2.17613
287.292	2.15323
287.498	2.14413
287.601	2.13765
288.017	2.11275
288.209	2.09913
288.536	2.08138
288.822	2.06055
289.055	2.05
289.211	2.03988
289.441	2.02191
289.523	2.02061
289.834	2.00111
290.066	1.98321
290.146	1.98117
290.403	1.97208
290.51	1.96398
290.627	1.95588
290.697	1.94444
290.768	1.94778
291.286	1.91843
291.333	1.9056
291.496	1.90498
291.717	1.89107
291.961	1.87694
291.975	1.86668
292.167	1.86783
292.623	1.82767
292.896	1.82503
293.277	1.78858
293.635	1.78178
293.937	1.74939
293.937	1.74939
294.397	1.7383
294.553	1.72919
294.879	1.71067
295.228	1.69171
295.589	1.67253
295.796	1.66241
295.989	1.63698
296.558	1.61636
297.222	1.57866
297.465	1.55636
298.157	1.52921
298.465	1.50216
