Uv/Vis Spectrum: 5-Nitro furfural semicarbazone
Formula: C6H6N4O4
CAS: 59-87-0
Melting point: 235-240
Instrument: unknown
Origin: INSTITUTE OF ENERGY PROBLEMS OF CHEMICAL PHYSICS, RAS
Wavelength (nm)	Logarithm epsilon
225.2	3.872
226.72	3.876
228.24	3.882
229.76	3.889
231.26	3.895
232.81	3.903
234.18	3.909
235.68	3.92
237.17	3.928
238.56	3.936
240.08	3.943
241.43	3.953
242.94	3.962
244.31	3.97
245.79	3.979
247.18	3.987
248.71	3.996
250.07	4.002
251.49	4.01
252.93	4.018
254.46	4.025
255.97	4.032
257.33	4.038
258.89	4.046
260.21	4.052
261.74	4.058
263.17	4.064
264.77	4.069
266.36	4.067
267.85	4.061
269.34	4.055
270.57	4.048
272.21	4.038
273.57	4.025
274.95	4.011
276.27	3.997
277.63	3.984
278.98	3.97
280.33	3.953
281.68	3.936
283.04	3.92
284.22	3.903
285.4	3.886
286.59	3.869
287.77	3.852
289.13	3.835
290.31	3.818
291.49	3.801
292.68	3.784
294.03	3.767
295.38	3.75
296.74	3.733
298.09	3.72
299.44	3.706
300.79	3.693
302.32	3.681
303.67	3.676
305.19	3.672
306.71	3.669
308.27	3.669
309.76	3.672
311.11	3.682
312.46	3.693
313.82	3.706
315.17	3.72
316.52	3.737
317.88	3.754
319.06	3.771
320.41	3.787
321.6	3.804
322.78	3.821
323.96	3.838
325.15	3.855
326.33	3.872
327.52	3.889
328.7	3.909
329.88	3.926
331.07	3.947
332.25	3.967
333.43	3.987
334.62	4.004
335.8	4.021
336.99	4.038
338.34	4.055
339.69	4.072
341.04	4.086
342.4	4.102
343.94	4.117
345.3	4.13
346.66	4.144
347.98	4.157
349.33	4.17
350.87	4.181
352.21	4.191
353.56	4.201
354.8	4.213
356.43	4.221
358	4.231
359.31	4.235
360.83	4.238
362.35	4.241
363.88	4.241
365.4	4.245
366.92	4.248
368.44	4.248
369.96	4.255
371.49	4.251
373.01	4.248
374.53	4.245
376.05	4.241
377.57	4.238
379.1	4.228
380.62	4.221
381.97	4.211
383.32	4.201
384.68	4.191
386.03	4.174
387.38	4.16
388.74	4.143
390.09	4.126
391.44	4.109
392.8	4.092
393.98	4.072
395.33	4.055
396.35	4.035
397.53	4.014
398.71	3.994
399.9	3.974
401.08	3.953
402.1	3.93
403.28	3.909
404.3	3.889
405.14	3.865
406.16	3.845
407.17	3.821
408.02	3.794
409.03	3.771
409.88	3.743
410.72	3.72
411.57	3.696
412.41	3.672
413.26	3.645
414.1	3.622
414.78	3.594
415.63	3.571
416.3	3.544
417.15	3.52
417.99	3.493
418.84	3.469
419.52	3.442
420.36	3.418
421.04	3.391
421.88	3.367
422.39	3.34
423.24	3.317
423.91	3.29
424.76	3.266
425.43	3.239
426.28	3.212
426.96	3.185
427.8	3.157
428.48	3.13
429.16	3.103
429.83	3.076
430.51	3.049
431.35	3.022
431.86	2.995
432.71	2.971
433.21	2.944
434.06	2.917
434.57	2.89
435.41	2.863
435.92	2.836
436.6	2.809
437.27	2.782
437.95	2.754
438.63	2.727
439.3	2.7
439.98	2.673
440.49	2.646
441.33	2.619
441.84	2.592
442.52	2.565
443.02	2.538
443.7	2.511
444.21	2.483
444.71	2.456
445.39	2.429
445.9	2.402
446.57	2.375
447.08	2.348
447.59	2.321
448.27	2.294
448.77	2.263
449.28	2.236
449.96	2.209
450.46	2.179
450.97	2.152
451.48	2.124
451.99	2.097
452.49	2.07
453	2.043
453.51	2.013
454.02	1.986
454.52	1.959
455.03	1.928
455.54	1.898
456.05	1.87
456.55	1.843
457.06	1.813
457.57	1.782
458.07	1.755
458.58	1.728
