Uv/Vis Spectrum: 1H-Imidazole, 4,5-dihydro-2-(phenylmethyl)-
Formula: C10H12N2
CAS: 59-98-3
Melting point: 172.5-175
Instrument: Zeiss VSU-1
Origin: INSTITUTE OF ENERGY PROBLEMS OF CHEMICAL PHYSICS, RAS
Wavelength (nm)	Logarithm epsilon
207.09	4.112
207.26	4.104
207.47	4.092
207.74	4.075
208.1	4.058
208.61	4.037
209.11	4.017
209.62	3.997
210.1	3.979
210.63	3.963
211.14	3.935
211.65	3.918
212.15	3.898
212.66	3.877
213.16	3.86
213.67	3.843
214.18	3.83
214.68	3.813
215.19	3.799
215.7	3.782
216.2	3.769
216.69	3.758
217.21	3.748
217.74	3.741
218.21	3.732
218.73	3.724
219.24	3.718
219.73	3.71
220.25	3.701
220.73	3.693
221.26	3.684
221.77	3.673
222.32	3.666
222.79	3.66
223.29	3.653
223.74	3.645
224.3	3.638
224.81	3.633
225.31	3.627
225.82	3.623
226.33	3.616
226.82	3.609
227.34	3.602
227.85	3.599
228.34	3.592
228.93	3.584
229.38	3.575
229.87	3.565
230.38	3.554
230.89	3.545
231.39	3.534
231.9	3.52
232.4	3.503
232.91	3.49
233.42	3.473
233.92	3.456
234.43	3.439
234.94	3.422
235.44	3.405
235.95	3.384
236.45	3.367
236.96	3.34
237.49	3.318
237.97	3.303
238.48	3.286
238.99	3.255
239.49	3.235
240	3.204
240.5	3.187
241.01	3.156
241.52	3.133
242.02	3.105
242.53	3.082
243.04	3.051
243.54	3.027
244.05	2.996
244.56	2.962
245.06	2.928
245.57	2.894
246.07	2.86
246.58	2.84
247.09	2.806
247.59	2.772
248.1	2.738
248.61	2.704
249.11	2.667
249.62	2.646
250.12	2.626
250.63	2.605
251.14	2.575
251.64	2.537
252.15	2.5
252.66	2.459
253.16	2.422
253.67	2.391
254.18	2.364
254.68	2.35
255.19	2.347
255.69	2.35
256.2	2.354
256.71	2.35
257.21	2.337
257.72	2.309
258.23	2.289
258.73	2.269
259.24	2.248
259.74	2.214
260.25	2.194
260.76	2.173
261.26	2.153
261.77	2.139
262.39	2.133
262.95	2.143
263.45	2.155
263.79	2.159
264.05	2.14
264.48	2.085
264.98	2.041
265.61	1.996
266.28	1.95
266.79	1.9
267.34	1.826
267.88	1.744
268.35	1.673
268.86	1.609
269.36	1.534
269.87	1.473
270.38	1.374
270.88	1.275
271.39	1.207
271.9	1.109
272.4	1.041
272.91	0.962
273.41	0.898
273.92	0.83
