Uv/Vis Spectrum: pyrazolo[1,5-a]pyridin-2(1H)-one
Formula: C7H6N2O
CAS: 59942-87-9
Melting point: 127-128
Instrument: Hitachi EPS-3
Origin: INSTITUTE OF ENERGY PROBLEMS OF CHEMICAL PHYSICS, RAS
Wavelength (nm)	Logarithm epsilon
216.993	4.076
217.993	4.111
218.993	4.156
219.993	4.207
220.993	4.26
221.993	4.312
222.993	4.363
223.993	4.41
224.993	4.452
225.993	4.489
226.993	4.521
227.993	4.545
228.993	4.564
229.993	4.574
230.993	4.577
231.993	4.569
232.801	4.552
233.801	4.521
234.801	4.453
235.801	4.358
236.801	4.243
237.801	4.114
238.801	3.973
239.801	3.824
240.801	3.667
241.801	3.506
242.801	3.344
243.6	3.232
244.6	3.05
245.6	2.928
246.6	2.851
247.6	2.807
248.6	2.788
249.6	2.785
250.6	2.792
251.6	2.804
252.6	2.818
253.6	2.832
254.6	2.844
255.6	2.855
256.6	2.863
257.6	2.87
258.6	2.877
259.6	2.884
260.6	2.893
261.6	2.903
262.6	2.915
263.491	2.927
264.491	2.94
265.491	2.954
266.491	2.968
267.491	2.983
268.491	2.998
269.491	3.012
270.491	3.025
271.491	3.036
272.491	3.047
273.491	3.056
274.491	3.064
275.491	3.07
276.491	3.075
277.491	3.078
278.491	3.08
279.491	3.08
280.491	3.08
281.491	3.078
282.491	3.075
283.491	3.071
284.491	3.067
285.491	3.062
286.491	3.058
287.491	3.053
288.491	3.048
289.491	3.044
290.491	3.041
291.491	3.038
292.491	3.036
293.491	3.035
294.561	3.029
295.561	3.036
296.561	3.042
297.561	3.047
298.561	3.052
299.561	3.056
300.561	3.059
301.561	3.062
302.561	3.065
303.561	3.068
304.561	3.07
305.561	3.073
306.561	3.074
307.561	3.076
308.561	3.076
309.561	3.077
310.561	3.076
311.561	3.075
312.561	3.072
313.561	3.069
314.561	3.064
315.561	3.059
316.561	3.052
317.561	3.043
318.561	3.034
319.561	3.023
320.561	3.011
321.561	2.998
322.561	2.983
323.561	2.967
324.561	2.95
325.561	2.932
326.561	2.913
327.561	2.892
328.561	2.871
329.561	2.848
330.561	2.825
331.561	2.8
332.561	2.774
333.561	2.747
334.561	2.719
