Uv/Vis Spectrum: 3-(1-naphthalenyl)-6(2-phenylethenyll)pyridazine
Formula: C22H16N2
CAS: 60028-41-3
Melting point: 177
Instrument: Pye Unicam SP 8000
Origin: INSTITUTE OF ENERGY PROBLEMS OF CHEMICAL PHYSICS, RAS
Wavelength (nm)	Logarithm epsilon
216.399	4.659
216.899	4.665
217.399	4.672
217.899	4.678
218.399	4.685
218.899	4.691
219.399	4.698
219.899	4.704
220.399	4.71
220.899	4.716
221.399	4.721
221.899	4.727
222.399	4.732
222.899	4.736
223.399	4.74
223.899	4.743
224.399	4.745
224.899	4.745
225.399	4.742
225.899	4.737
226.399	4.728
226.461	4.725
226.961	4.71
227.461	4.692
227.961	4.673
228.461	4.652
228.961	4.63
229.461	4.607
229.961	4.583
230.461	4.558
230.961	4.532
231.461	4.506
231.961	4.48
232.461	4.454
232.961	4.427
233.461	4.401
233.961	4.376
234.461	4.351
234.961	4.327
235.461	4.304
235.961	4.281
236.461	4.26
236.961	4.24
237.461	4.221
237.961	4.203
238.461	4.185
238.961	4.169
239.461	4.152
239.961	4.135
240.461	4.119
240.867	4.101
241.367	4.087
241.867	4.073
242.367	4.059
242.867	4.045
243.367	4.031
243.867	4.018
244.367	4.004
244.867	3.991
245.367	3.977
245.867	3.964
246.367	3.952
246.867	3.94
247.367	3.928
247.867	3.916
248.367	3.905
248.867	3.895
249.367	3.884
249.867	3.875
250.367	3.866
250.867	3.858
251.367	3.85
251.867	3.843
252.367	3.837
252.867	3.831
253.367	3.826
253.867	3.822
254.367	3.818
254.867	3.816
255.367	3.814
255.867	3.813
256.367	3.812
256.867	3.812
257.367	3.813
257.867	3.815
258.367	3.817
258.867	3.82
259.367	3.824
259.867	3.828
260.367	3.833
260.867	3.838
261.367	3.844
261.867	3.85
262.367	3.857
262.867	3.864
263.367	3.871
263.867	3.879
264.367	3.887
264.867	3.895
265.367	3.904
265.867	3.913
266.367	3.922
266.867	3.931
267.367	3.94
267.867	3.95
268.367	3.96
268.867	3.969
269.367	3.979
269.867	3.989
270.367	3.999
270.867	4.009
271.367	4.019
271.867	4.029
272.367	4.039
272.867	4.049
273.367	4.059
273.867	4.068
274.367	4.078
274.867	4.088
275.367	4.098
275.867	4.107
276.367	4.117
276.867	4.126
277.367	4.136
277.867	4.145
278.367	4.154
278.867	4.163
279.367	4.172
279.867	4.181
280.2	4.188
280.7	4.195
281.2	4.202
281.7	4.21
282.2	4.218
282.7	4.226
283.2	4.234
283.7	4.243
284.2	4.251
284.7	4.26
285.2	4.268
285.7	4.276
286.2	4.285
286.7	4.293
287.2	4.301
287.7	4.31
288.2	4.318
288.7	4.325
289.2	4.333
289.7	4.341
290.2	4.349
290.7	4.356
291.2	4.363
291.7	4.37
292.2	4.378
292.7	4.385
293.2	4.391
293.7	4.398
294.2	4.405
294.7	4.411
295.2	4.417
295.7	4.424
296.2	4.43
296.7	4.436
297.2	4.442
297.7	4.447
298.2	4.453
298.7	4.458
299.2	4.464
299.7	4.469
300.2	4.474
300.7	4.479
301.2	4.483
301.7	4.488
302.2	4.492
302.7	4.496
303.2	4.5
303.468	4.502
303.968	4.506
304.468	4.509
304.968	4.513
305.468	4.516
305.968	4.519
306.468	4.521
306.968	4.524
307.468	4.526
307.968	4.528
308.468	4.53
308.968	4.531
309.468	4.533
309.968	4.534
310.468	4.536
310.968	4.537
311.468	4.538
311.968	4.539
312.468	4.54
312.968	4.541
313.468	4.542
313.968	4.543
314.468	4.543
314.968	4.544
315.468	4.544
315.968	4.545
316.468	4.545
316.968	4.546
317.468	4.546
317.968	4.547
318.468	4.547
318.968	4.547
319.468	4.548
319.968	4.548
320.468	4.548
320.968	4.548
321.468	4.548
321.968	4.548
322.468	4.548
322.968	4.547
323.468	4.547
323.968	4.546
324.468	4.546
324.968	4.545
325.468	4.544
326.044	4.542
326.544	4.541
327.044	4.539
327.544	4.537
328.044	4.535
328.544	4.533
329.044	4.531
329.544	4.528
330.044	4.525
330.544	4.522
331.044	4.519
331.544	4.515
332.044	4.512
332.544	4.508
333.044	4.503
333.544	4.499
334.044	4.494
334.544	4.489
335.044	4.484
335.544	4.479
336.044	4.473
336.544	4.467
337.044	4.461
337.544	4.454
338.044	4.447
338.544	4.44
339.044	4.433
339.544	4.425
340.044	4.417
340.544	4.409
341.044	4.4
341.544	4.391
342.044	4.382
342.544	4.372
343.044	4.363
343.544	4.352
344.044	4.341
344.544	4.33
345.044	4.319
345.544	4.307
346.044	4.294
346.544	4.281
347.044	4.268
347.544	4.254
348.044	4.24
348.544	4.225
349.044	4.21
349.544	4.194
350.044	4.177
350.544	4.16
351.044	4.142
351.544	4.123
352.044	4.103
352.544	4.083
353.044	4.062
353.544	4.04
354.044	4.017
354.544	3.993
355.044	3.968
355.544	3.941
356.044	3.914
356.544	3.885
357.044	3.855
357.544	3.823
358.044	3.79
