Uv/Vis Spectrum: 2,3-Pentadione
Formula: C5H8O2
CAS: 600-14-6
Boiling point: 108
Instrument: n.i.g.
Origin: INSTITUTE OF ENERGY PROBLEMS OF CHEMICAL PHYSICS, RAS
Wavelength (nm)	Logarithm epsilon
205.874	3.57833
206.019	3.5735
206.163	3.56862
206.305	3.56368
206.446	3.55868
206.586	3.55362
206.725	3.54849
206.862	3.54331
206.999	3.53805
207.134	3.53273
207.269	3.52734
207.402	3.52189
207.535	3.51635
207.666	3.51075
207.797	3.50507
207.927	3.49931
208.056	3.49347
208.184	3.48754
208.312	3.48154
208.439	3.47544
208.565	3.46926
208.691	3.46299
208.816	3.45662
208.94	3.45015
209.065	3.44359
209.188	3.43691
209.311	3.43014
209.434	3.42325
209.557	3.41625
209.679	3.40914
209.801	3.4019
209.923	3.39454
210.044	3.38704
210.166	3.37942
210.287	3.37165
210.408	3.36375
210.529	3.35569
210.65	3.34748
210.772	3.33911
210.893	3.33057
211.014	3.32186
211.136	3.31296
211.257	3.30389
211.379	3.29461
211.501	3.28513
211.624	3.27543
211.746	3.26552
211.869	3.25537
211.993	3.24497
212.117	3.23432
212.241	3.2234
212.366	3.21219
212.492	3.20069
212.618	3.18887
212.745	3.17672
212.872	3.16422
213	3.15135
213.129	3.13809
213.259	3.1244
213.389	3.11027
213.521	3.09566
213.653	3.08054
213.786	3.06488
213.92	3.04863
214.055	3.03174
214.191	3.01418
214.329	2.99587
214.467	2.97676
214.607	2.95676
214.747	2.93581
214.889	2.91379
215.032	2.89059
215.177	2.86609
215.177	2.86609
215.961	2.83235
216.802	2.79516
217.671	2.75416
217.671	2.75416
218.873	2.75456
220.017	2.76029
221.106	2.77076
222.14	2.78526
223.121	2.80305
224.049	2.82338
224.925	2.84555
225.751	2.86896
226.528	2.89307
227.256	2.91742
227.936	2.94166
228.571	2.96549
229.16	2.98868
229.705	3.01104
230.206	3.03243
230.666	3.05273
231.084	3.07186
231.462	3.08974
231.802	3.10632
232.102	3.12154
232.367	3.13536
232.595	3.14773
232.788	3.15861
232.947	3.16794
233.074	3.17566
233.169	3.18173
233.233	3.18604
233.233	3.18604
233.877	3.19889
234.459	3.21144
234.986	3.22368
235.465	3.2356
235.902	3.24722
236.303	3.25854
236.676	3.26955
237.027	3.28026
237.363	3.29067
237.69	3.30078
238.016	3.3106
238.346	3.32012
238.687	3.32935
238.687	3.32935
239.318	3.33704
239.852	3.34486
240.299	3.35278
240.672	3.36077
240.983	3.36879
241.242	3.37679
241.463	3.38476
241.656	3.39267
241.833	3.40048
242.007	3.40818
242.188	3.41573
242.388	3.42313
242.62	3.43034
242.894	3.43736
243.222	3.44415
243.617	3.45072
244.09	3.45704
244.652	3.4631
245.315	3.46888
246.092	3.47437
246.993	3.47956
248.03	3.48443
249.215	3.48898
250.561	3.49318
252.077	3.49704
252.077	3.49704
253.998	3.49462
255.551	3.49032
256.788	3.48456
257.76	3.47777
258.52	3.4704
259.118	3.46292
259.606	3.45583
260.035	3.44968
260.035	3.44968
260.36	3.4435
260.692	3.43715
261.034	3.43062
261.385	3.42393
261.749	3.41706
262.125	3.41002
262.515	3.40281
262.921	3.39543
263.343	3.38787
263.783	3.38014
264.242	3.37224
264.722	3.36417
265.223	3.35592
265.748	3.3475
266.297	3.33892
266.871	3.33015
267.472	3.32123
268.102	3.31212
268.76	3.30286
269.45	3.29343
270.171	3.28383
270.926	3.27407
271.716	3.26415
272.541	3.25407
273.403	3.24385
274.303	3.23347
275.243	3.22296
276.224	3.2123
277.248	3.20152
278.315	3.19061
279.426	3.17958
280.584	3.16845
281.788	3.15723
283.042	3.14592
283.042	3.14592
283.715	3.12971
284.424	3.11268
285.157	3.09484
285.902	3.07616
285.902	3.07616
286.63	3.06248
287.359	3.04793
288.093	3.03251
288.835	3.01616
289.588	2.99885
290.357	2.98053
291.143	2.96115
291.95	2.94065
292.782	2.91897
293.642	2.89602
294.533	2.87173
295.458	2.84599
296.421	2.81869
297.424	2.78969
298.471	2.75885
299.566	2.72597
300.711	2.69085
301.91	2.65322
303.167	2.61279
304.483	2.56915
305.863	2.52185
307.31	2.47026
308.827	2.41362
310.417	2.35086
312.084	2.28052
313.831	2.20052
315.661	2.10766
317.577	1.99666
317.577	1.99666
320.27	1.91151
322.952	1.84248
325.622	1.79832
328.275	1.78507
330.909	1.80273
333.52	1.84525
336.105	1.90382
338.661	1.97036
341.184	2.03905
343.671	2.10631
346.119	2.17014
348.525	2.22957
350.885	2.28424
353.196	2.33407
355.455	2.37917
357.659	2.41968
359.804	2.45579
361.887	2.48765
361.887	2.48765
363.625	2.53036
365.383	2.57089
367.154	2.60934
368.929	2.6458
370.701	2.68036
372.461	2.71314
374.201	2.74422
375.913	2.77371
377.589	2.80167
379.222	2.82819
380.802	2.85335
382.322	2.8772
383.774	2.89982
385.149	2.92126
386.44	2.94156
387.639	2.96078
388.738	2.97895
389.727	2.99612
390.601	3.01231
390.601	3.01231
392.396	3.01845
394.104	3.02747
395.732	3.03884
397.289	3.05202
398.783	3.0665
400.221	3.08181
401.611	3.09754
402.963	3.11332
404.283	3.12882
405.579	3.14378
406.861	3.15794
408.135	3.17111
409.411	3.18309
410.695	3.19373
411.996	3.20285
413.322	3.2103
413.322	3.2103
413.858	3.21851
414.422	3.22655
415.044	3.23446
415.044	3.23446
415.565	3.23491
415.699	3.2398
415.7	3.24028
415.701	3.24077
415.702	3.24125
416.115	3.23526
416.721	3.23539
416.721	3.23539
417.554	3.22652
418.08	3.22221
418.751	3.21887
418.751	3.21887
419.305	3.21885
419.916	3.21884
420.556	3.21882
420.556	3.21882
420.816	3.22018
421.076	3.22132
421.336	3.22234
421.336	3.22234
424.059	3.21851
427.353	3.21405
430.853	3.21185
430.853	3.21185
431.255	3.22002
431.657	3.22805
432.059	3.23593
432.059	3.23593
432.455	3.24078
432.588	3.24015
432.702	3.2354
432.748	3.2393
432.966	3.23834
433.346	3.23477
433.988	3.23392
433.988	3.23392
434.422	3.224
435.056	3.20871
436.015	3.19132
437.423	3.17559
439.406	3.16584
439.406	3.16584
440.052	3.16695
440.698	3.16792
441.344	3.16864
441.344	3.16864
441.733	3.16746
442.151	3.16615
442.626	3.16458
442.626	3.16458
443.234	3.15115
443.843	3.13744
444.456	3.12341
445.075	3.10902
445.703	3.09425
446.344	3.07904
446.999	3.06335
447.672	3.04712
448.365	3.03028
449.082	3.01277
449.825	2.9945
450.596	2.97538
451.399	2.9553
452.237	2.93414
453.111	2.91175
454.026	2.88796
454.983	2.86257
455.986	2.83531
457.038	2.80589
457.038	2.80589
457.301	2.77473
457.625	2.74155
458.017	2.70596
458.483	2.66742
459.029	2.62526
459.662	2.57856
460.39	2.52605
461.218	2.46592
462.153	2.39543
463.202	2.31014
464.371	2.20215
465.668	2.05514
465.668	2.05514
467.418	1.91485
469.451	1.62542
