Uv/Vis Spectrum: Ethane, 1,1-dinitro-
Formula: C2H4N2O4
CAS: 600-40-8
Boiling point: 185.5
Instrument: Beckman Model DU
Origin: INSTITUTE OF ENERGY PROBLEMS OF CHEMICAL PHYSICS, RAS
Wavelength (nm)	Logarithm epsilon
217.79	3.79
217.95	3.784
218.11	3.774
218.27	3.768
218.43	3.758
218.59	3.752
219.07	3.72
219.24	3.711
219.4	3.701
219.56	3.695
219.72	3.685
219.88	3.679
220.04	3.669
220.52	3.647
221.33	3.602
222.13	3.554
222.94	3.496
223.74	3.445
224.55	3.397
225.35	3.343
226.16	3.289
226.96	3.238
227.77	3.18
228.57	3.119
229.38	3.065
230.18	3.008
230.99	2.934
231.79	2.87
232.6	2.81
233.4	2.736
234.21	2.669
235.02	2.608
235.82	2.544
236.63	2.471
237.43	2.388
238.24	2.317
239.04	2.228
239.85	2.132
240.65	2.027
241.46	1.918
242.26	1.845
243.07	1.768
243.87	1.707
244.68	1.647
245.48	1.602
246.29	1.573
247.09	1.544
247.9	1.525
248.7	1.509
249.51	1.493
250.31	1.484
251.12	1.477
251.92	1.477
252.73	1.477
253.53	1.484
254.34	1.49
255.22	1.5
255.95	1.506
256.77	1.515
257.56	1.525
258.46	1.535
259.17	1.544
259.97	1.554
260.75	1.563
261.56	1.574
262.39	1.586
263.18	1.595
264	1.605
264.73	1.616
265.61	1.627
266.79	1.64
267.97	1.653
268.83	1.662
269.63	1.672
270.44	1.678
271.24	1.688
272.05	1.694
272.85	1.704
273.64	1.711
274.46	1.717
275.27	1.723
276.07	1.729
276.88	1.733
277.7	1.736
278.51	1.738
279.24	1.741
279.98	1.742
280.94	1.742
281.71	1.742
282.51	1.739
283.22	1.738
284.12	1.736
284.93	1.733
285.73	1.73
286.46	1.726
287.34	1.72
288.15	1.714
288.9	1.707
289.71	1.7
290.56	1.691
291.37	1.682
292.17	1.672
292.98	1.662
293.61	1.654
294.59	1.643
295.38	1.633
296.2	1.624
297.01	1.611
297.81	1.599
298.62	1.586
299.42	1.576
300.23	1.563
301.03	1.551
301.84	1.535
302.64	1.522
303.45	1.506
304.25	1.487
305.06	1.471
305.86	1.455
306.67	1.436
307.47	1.413
308.28	1.394
309.08	1.378
309.89	1.362
310.69	1.343
311.5	1.321
312.3	1.305
313.11	1.289
313.91	1.273
314.72	1.257
315.52	1.241
316.33	1.225
317.13	1.209
317.94	1.193
318.74	1.177
319.55	1.161
320.35	1.145
321.16	1.129
321.96	1.116
322.77	1.1
323.57	1.084
324.38	1.071
325.18	1.055
325.99	1.043
326.79	1.027
327.6	1.011
328.4	0.998
329.21	0.982
330.01	0.969
330.82	0.95
331.62	0.937
332.43	0.921
333.23	0.912
334.04	0.899
334.84	0.886
335.65	0.87
336.45	0.854
337.26	0.841
338.06	0.829
