Uv/Vis Spectrum: Butane, 2-nitro-
Formula: C4H9NO2
CAS: 600-24-8
Boiling point: 78/ 100 mm
Instrument: Cary recording spectrophotometer
Origin: INSTITUTE OF ENERGY PROBLEMS OF CHEMICAL PHYSICS, RAS
Wavelength (nm)	Logarithm epsilon
223.94	2.99
225.57	2.868
225.8	2.854
226.03	2.84
226.26	2.821
226.72	2.793
227.88	2.699
229.04	2.61
230.2	2.464
231.36	2.328
232.52	2.21
233.68	2.06
234.84	1.881
236	1.712
237.16	1.542
238.32	1.387
239.48	1.27
240.64	1.138
241.8	1.067
242.96	1.034
244.12	1.02
245.28	1.016
246.43	1.03
247.59	1.034
248.75	1.053
249.91	1.096
251.07	1.124
252.23	1.157
253.39	1.185
254.55	1.213
255.71	1.232
256.87	1.255
258.03	1.279
259.19	1.303
260.35	1.317
261.51	1.34
262.67	1.354
263.83	1.373
264.99	1.387
266.14	1.406
267.3	1.415
268.46	1.429
269.62	1.434
270.78	1.444
271.94	1.444
273.1	1.448
274.26	1.448
275.42	1.448
276.58	1.448
277.74	1.448
278.9	1.444
280.06	1.429
281.22	1.425
282.38	1.415
283.54	1.397
284.7	1.378
285.86	1.368
287.01	1.35
288.17	1.331
289.33	1.317
290.49	1.298
291.65	1.279
292.81	1.255
293.97	1.223
295.13	1.194
296.29	1.171
297.45	1.147
298.61	1.119
299.77	1.086
300.93	1.063
302.09	1.034
303.25	1.006
304.41	0.973
305.57	0.945
306.72	0.917
307.88	0.889
309.04	0.856
310.2	0.832
311.36	0.809
312.52	0.781
313.68	0.743
314.84	0.719
316	0.696
317.16	0.663
318.32	0.63
319.48	0.607
320.64	0.578
321.8	0.55
322.96	0.522
324.12	0.494
325.28	0.47
326.43	0.442
327.59	0.418
328.75	0.386
329.91	0.357
331.07	0.329
332.23	0.301
333.39	0.268
334.55	0.245
335.71	0.216
336.87	0.183
338.03	0.155
339.19	0.136
