Uv/Vis Spectrum: 4-Phenylazoaniline
Formula: C12H11N3
CAS: 60-09-3
Melting point: 127
Boiling point: > 360
Instrument: n.i.g.
Origin: INSTITUTE OF ENERGY PROBLEMS OF CHEMICAL PHYSICS, RAS
Wavelength (nm)	Logarithm epsilon
214.001	3.80672
214.53	3.80095
214.552	3.8065
215.509	3.80056
216.04	3.79541
223.648	3.79728
224.199	3.79706
224.711	3.80241
226.282	3.81226
226.772	3.81206
226.792	3.81699
227.342	3.81677
231.565	3.86133
234.748	3.89089
235.298	3.89067
235.318	3.8956
243.683	3.94898
244.192	3.95371
245.722	3.95309
246.234	3.95844
256.454	3.95432
256.922	3.94858
263.409	3.91512
263.431	3.92067
263.959	3.9149
264.899	3.90465
265.428	3.89889
265.45	3.90443
265.898	3.89377
266.368	3.88864
266.388	3.89357
266.897	3.88288
266.919	3.88842
267.367	3.87775
267.387	3.88268
273.181	3.79831
273.629	3.78764
273.67	3.79811
274.077	3.77697
274.099	3.78252
274.608	3.77182
274.627	3.77675
275.078	3.7667
275.097	3.77163
275.506	3.75111
275.545	3.76096
276.035	3.74534
276.057	3.75088
276.505	3.74022
276.524	3.74514
283.298	3.64495
283.768	3.63983
283.788	3.64476
284.235	3.63409
284.257	3.63963
284.786	3.63387
285.237	3.62382
285.256	3.62874
285.726	3.62362
286.255	3.61786
294.803	3.59406
295.312	3.59879
306.512	3.59428
307.085	3.5996
314.245	3.61213
314.816	3.61684
315.305	3.61664
315.325	3.62157
316.365	3.62115
316.877	3.6265
317.917	3.62608
317.937	3.63101
322.037	3.64477
322.057	3.6497
322.546	3.6495
324.138	3.66428
324.688	3.66406
324.71	3.6696
325.2	3.66941
325.709	3.67414
325.729	3.67906
326.28	3.67884
326.302	3.68438
326.791	3.68419
326.811	3.68912
332.809	3.77923
333.298	3.77903
333.34	3.7895
334.422	3.79955
334.461	3.8094
334.951	3.80921
334.992	3.81968
335.501	3.82441
335.524	3.82995
336.094	3.83465
336.135	3.84512
337.154	3.85458
337.176	3.86013
337.746	3.86483
337.766	3.86976
342.173	3.96051
342.662	3.96031
342.704	3.97078
343.786	3.98083
343.805	3.98576
344.317	3.9911
344.356	4.00096
344.907	4.00074
345.419	4.00608
345.438	4.01101
345.947	4.01574
345.969	4.02128
346.54	4.02599
346.559	4.03091
347.071	4.03626
347.11	4.04611
353.088	4.1313
353.598	4.13603
353.62	4.14157
354.109	4.14137
354.129	4.1463
355.72	4.16108
355.74	4.16601
356.29	4.16578
356.312	4.17133
362.188	4.24607
362.207	4.25099
362.697	4.2508
363.779	4.26085
363.799	4.26577
364.288	4.26558
364.861	4.2709
364.881	4.27582
365.37	4.27563
365.39	4.28055
365.879	4.28036
366.452	4.28568
366.472	4.2906
366.961	4.29041
367.471	4.29514
367.493	4.30068
368.043	4.30046
368.553	4.30519
369.042	4.30499
369.123	4.32531
371.716	4.32982
372.756	4.3294
373.265	4.33413
373.285	4.33906
373.774	4.33886
374.347	4.34418
374.367	4.34911
375.346	4.34871
375.916	4.35342
376.406	4.35322
376.918	4.35857
376.937	4.36349
378.957	4.36268
394.746	4.35632
395.277	4.35117
397.297	4.35036
397.745	4.33969
397.764	4.34462
403.233	4.30171
403.723	4.30151
404.721	4.29062
405.211	4.29042
407.679	4.26352
408.149	4.2584
408.168	4.26332
415.512	4.18326
415.982	4.17814
416.002	4.18306
416.513	4.17299
417.003	4.17279
421.918	4.12948
422.447	4.12372
422.469	4.12926
425.406	4.09724
425.874	4.0915
425.896	4.09704
426.344	4.08637
426.364	4.0913
426.814	4.08125
427.365	4.08103
427.832	4.07529
428.322	4.07509
429.323	4.06482
431.343	4.064
431.81	4.04284
431.872	4.05824
432.77	4.03752
432.789	4.04245
433.321	4.0373
433.769	4.02663
433.791	4.03217
434.258	4.02644
434.789	4.02129
435.26	4.01616
435.279	4.02109
436.258	4.00527
437.218	3.99995
437.237	4.00488
444.133	3.93548
444.601	3.92974
444.623	3.93529
445.049	3.91908
445.071	3.92462
445.58	3.91393
446.07	3.91373
446.517	3.90306
446.539	3.90861
447.029	3.89299
447.049	3.89791
447.519	3.89279
448.498	3.87697
448.517	3.8819
454.27	3.78706
454.29	3.79198
455.188	3.77127
455.207	3.77619
456.167	3.75545
456.187	3.76038
456.615	3.74478
456.637	3.75033
457.146	3.73964
457.166	3.74456
457.594	3.72897
457.616	3.73451
458.084	3.72877
463.755	3.61361
464.184	3.59801
464.223	3.60787
464.713	3.59225
464.735	3.59779
465.163	3.5822
465.183	3.58712
465.611	3.57153
465.631	3.57646
466.142	3.56638
466.162	3.57131
466.59	3.55572
466.61	3.56064
467.569	3.5399
467.589	3.54483
468.039	3.53477
468.059	3.5397
468.487	3.52411
468.507	3.52903
469.019	3.51896
472.71	3.42988
473.219	3.41919
473.239	3.42412
473.647	3.4036
473.689	3.41407
474.117	3.39847
474.137	3.4034
474.607	3.38285
474.646	3.39271
475.075	3.37711
475.096	3.38266
475.525	3.36706
475.545	3.37199
475.953	3.35147
475.992	3.36132
476.482	3.34571
476.504	3.35125
476.932	3.33565
476.952	3.34058
477.38	3.32499
477.4	3.32991
477.889	3.3143
477.912	3.31984
478.318	3.2987
478.36	3.30917
478.788	3.29358
478.808	3.29851
479.339	3.29336
482.541	3.20447
482.969	3.18888
483.01	3.19935
483.5	3.18373
483.52	3.18866
483.948	3.17306
483.968	3.17799
484.376	3.15747
484.418	3.16794
484.885	3.14678
484.927	3.15725
485.336	3.13673
485.356	3.14166
485.784	3.12606
485.803	3.13099
486.273	3.11044
486.315	3.12091
487.15	3.08418
487.211	3.09958
487.681	3.07904
487.7	3.08396
488.09	3.05851
488.151	3.07391
488.557	3.05278
488.579	3.05832
489.069	3.0427
489.089	3.04763
489.475	3.02156
489.536	3.03696
489.965	3.02137
494.513	2.88568
494.555	2.89615
495.024	2.8756
495.064	2.88546
495.453	2.86001
495.492	2.86986
495.901	2.84934
495.942	2.85981
496.39	2.83372
496.432	2.84419
496.838	2.82306
496.86	2.8286
497.267	2.80746
497.308	2.81793
497.776	2.79677
497.798	2.80232
498.204	2.78118
498.246	2.79165
498.632	2.76559
498.674	2.77605
499.164	2.76044
503.203	2.62002
503.244	2.63049
503.651	2.60935
503.673	2.6149
504.059	2.58883
504.121	2.60423
504.568	2.57814
504.61	2.58861
504.997	2.56255
505.038	2.57302
505.445	2.55188
505.486	2.56235
505.915	2.53134
505.976	2.54673
506.343	2.51574
506.385	2.52621
506.772	2.50015
506.813	2.51062
507.2	2.48455
507.261	2.49995
507.709	2.47386
507.751	2.48433
508.118	2.45334
508.179	2.46874
508.527	2.43282
508.588	2.44822
509.077	2.4326
513.503	2.26612
513.523	2.27105
513.909	2.24498
513.971	2.26038
514.421	2.23491
514.441	2.23984
514.827	2.21377
514.888	2.22917
515.256	2.19818
515.297	2.20865
515.745	2.18256
515.806	2.19796
516.173	2.16697
516.215	2.17744
516.624	2.15692
516.663	2.16677
517.091	2.13576
517.153	2.15115
517.581	2.13556
