Uv/Vis Spectrum: 3-beta-D-ribofuranosyl-3Himidazo[4,5-g]quinazolin-8-amine
Formula: C14H15N5O4
CAS: 60189-62-0
Melting point: 294-296 (dec.)
Instrument: Cary 15
Origin: INSTITUTE OF ENERGY PROBLEMS OF CHEMICAL PHYSICS, RAS
Wavelength (nm)	Logarithm epsilon
206.639	4.182
206.875	4.179
207.875	4.162
208.875	4.145
209.875	4.129
210.875	4.119
211.875	4.116
212.875	4.12
213.875	4.132
214.875	4.151
215.875	4.177
216.875	4.208
217.875	4.242
218.875	4.279
219.875	4.315
220.875	4.352
221.875	4.386
222.875	4.418
223.875	4.447
224.875	4.476
225.875	4.505
225.975	4.507
226.975	4.543
227.975	4.574
228.975	4.599
229.975	4.615
230.975	4.622
231.975	4.621
232.975	4.613
233.975	4.6
234.7	4.593
235.7	4.579
236.7	4.573
237.7	4.567
238.7	4.559
239.7	4.545
240.7	4.526
241.7	4.5
242.7	4.468
243.7	4.431
244.7	4.39
245.7	4.348
246.7	4.308
247.7	4.271
248.7	4.24
249.7	4.217
250.7	4.202
251.7	4.197
252.7	4.199
253.7	4.208
254.7	4.219
254.743	4.217
255.743	4.228
256.743	4.234
257.743	4.237
258.743	4.237
259.743	4.235
260.743	4.232
261.743	4.226
262.743	4.217
263.743	4.205
264.743	4.19
265.743	4.169
266.743	4.141
267.743	4.105
268.743	4.059
269.743	4.001
270.743	3.928
271.743	3.837
272.664	3.715
273.664	3.693
274.664	3.677
275.664	3.667
275.73	3.668
276.73	3.66
277.73	3.655
278.73	3.651
279.73	3.648
280.73	3.647
281.73	3.647
282.73	3.648
283.73	3.65
284.73	3.653
285.73	3.656
286.73	3.66
287.73	3.664
288.73	3.668
289.73	3.673
290.73	3.678
291.73	3.683
292.73	3.688
293.73	3.694
294.73	3.699
295.73	3.704
296.73	3.709
297.73	3.714
298.73	3.719
299.73	3.724
300.73	3.729
301.73	3.735
302.73	3.74
303.73	3.745
304.73	3.751
305.73	3.757
306.73	3.763
307.73	3.77
308.73	3.778
309.73	3.786
310.73	3.796
311.73	3.806
312.73	3.817
313.458	3.832
314.458	3.839
315.458	3.852
316.458	3.864
317.458	3.872
318.458	3.875
319.458	3.873
320.458	3.867
321.458	3.861
322.458	3.858
323.458	3.86
324.458	3.869
325.458	3.885
326.458	3.907
327.135	3.922
328.135	3.939
329.135	3.952
330.135	3.959
331.135	3.958
332.135	3.948
333.135	3.931
334.135	3.906
335.135	3.875
336.135	3.842
337.135	3.809
337.275	3.807
338.275	3.772
339.275	3.764
340.275	3.772
341.275	3.79
342.275	3.81
343.275	3.827
344.275	3.837
345.275	3.838
346.275	3.827
347.275	3.804
348.275	3.769
349.275	3.723
350.275	3.669
350.951	3.627
351.951	3.567
352.951	3.484
353.951	3.368
354.951	3.228
355.951	3.087
