Uv/Vis Spectrum: 4,5-dihydro-4-methyl-5-oxo-1H-pyrazole-3-carboxylic acid, ethyl ester
Formula: C7H10N2O3
CAS: 60178-92-9
Melting point: 190-192
Instrument: Spectronic 600
Origin: INSTITUTE OF ENERGY PROBLEMS OF CHEMICAL PHYSICS, RAS
Wavelength (nm)	Logarithm epsilon
210.23	3.712
211.73	3.767
213.23	3.817
214.73	3.863
216.23	3.905
217.73	3.941
219.23	3.973
220.73	3.999
222.23	4.021
223.73	4.037
225.23	4.049
226.73	4.057
228.23	4.06
229.73	4.06
231.23	4.055
232.73	4.047
234.23	4.033
235.73	4.014
237.152	3.989
238.652	3.959
240.152	3.906
241.652	3.838
243.152	3.766
244.652	3.694
246.152	3.628
247.652	3.572
249.152	3.528
250.708	3.495
252.208	3.478
253.708	3.466
255.208	3.458
256.708	3.454
258.208	3.451
259.708	3.45
261.208	3.451
262.708	3.451
264.208	3.453
265.708	3.454
267.208	3.456
268.708	3.457
270.208	3.458
271.708	3.46
273.208	3.461
274.708	3.462
276.208	3.462
277.708	3.462
279.208	3.462
280.708	3.462
282.208	3.461
283.708	3.459
285.208	3.457
286.708	3.453
288.208	3.449
289.708	3.445
291.208	3.439
292.708	3.433
294.05	3.429
295.55	3.423
297.05	3.417
298.55	3.411
300.05	3.405
301.55	3.399
303.05	3.393
304.55	3.386
306.05	3.379
307.55	3.371
309.05	3.362
310.55	3.352
312.05	3.342
313.55	3.332
315.05	3.321
316.55	3.309
318.05	3.297
319.55	3.286
321.05	3.274
322.55	3.262
324.05	3.25
325.55	3.238
327.05	3.226
328.55	3.214
