Uv/Vis Spectrum: 4,5-dihydro-1-methyl-5-oxo-1H-pyrazole-3-carboxylic acid, ethyl ester
Formula: C7H10N2O3
CAS: 60178-91-8
Instrument: Spectronic 600
Origin: INSTITUTE OF ENERGY PROBLEMS OF CHEMICAL PHYSICS, RAS
Wavelength (nm)	Logarithm epsilon
214.675	3.936
215.675	3.939
216.675	3.951
217.675	3.964
218.675	3.977
219.675	3.988
220.675	3.996
221.675	4.002
222.675	4.007
223.675	4.01
224.675	4.012
225.675	4.014
226.675	4.014
227.675	4.013
228.675	4.01
229.675	4.005
229.764	4.005
230.764	3.998
231.764	3.988
232.764	3.975
233.764	3.957
234.764	3.936
235.764	3.911
236.764	3.886
237.764	3.86
238.764	3.836
239.764	3.814
240.764	3.794
241.764	3.776
241.799	3.774
242.799	3.757
243.799	3.74
244.799	3.722
245.799	3.704
246.799	3.685
247.799	3.664
248.799	3.641
249.799	3.616
250.799	3.589
251.799	3.561
252.799	3.53
252.936	3.523
253.936	3.497
254.936	3.472
255.936	3.449
256.936	3.426
257.936	3.403
258.936	3.38
259.936	3.356
260.936	3.332
261.936	3.308
262.936	3.285
263.936	3.265
264.936	3.248
264.971	3.248
265.971	3.235
266.971	3.224
267.971	3.214
268.971	3.205
269.971	3.197
270.971	3.19
271.971	3.183
272.971	3.178
273.971	3.172
274.971	3.167
275.971	3.163
276.971	3.158
277.971	3.154
278.971	3.151
279.971	3.147
280.971	3.144
281.971	3.142
282.971	3.14
283.971	3.139
284.971	3.138
285.09	3.139
286.09	3.138
287.09	3.136
288.09	3.136
289.09	3.137
290.09	3.139
291.09	3.142
292.09	3.146
292.109	3.146
293.109	3.149
294.109	3.152
295.109	3.154
296.109	3.156
297.109	3.157
298.109	3.156
299.109	3.156
300.109	3.154
301.109	3.153
302.109	3.151
303.109	3.149
304.109	3.147
305.109	3.145
306.109	3.144
307.109	3.142
308.109	3.14
309.109	3.137
310.945	3.13
311.945	3.126
312.945	3.122
313.945	3.118
314.908	3.112
315.908	3.109
316.908	3.106
317.908	3.102
318.908	3.098
319.908	3.093
320.908	3.088
321.908	3.083
322.908	3.079
323.908	3.074
324.908	3.069
325.908	3.065
