Uv/Vis Spectrum: Phenethyl alcohol
Formula: C8H10O
CAS: 60-12-8
Melting point: -27
Boiling point: 218.2
Instrument: Unicam SP 500
Origin: INSTITUTE OF ENERGY PROBLEMS OF CHEMICAL PHYSICS, RAS
Wavelength (nm)	Logarithm epsilon
252.05	2.87272
253.623	2.86059
255.019	2.84705
256.256	2.83211
257.354	2.81575
258.332	2.79796
259.211	2.7787
260.01	2.75795
260.747	2.73568
261.443	2.71185
262.118	2.68643
262.79	2.65937
262.79	2.65937
264.919	2.58499
266.254	2.53171
267.042	2.49884
267.533	2.48054
267.975	2.46732
267.975	2.46732
268.163	2.4527
268.572	2.43403
268.974	2.40994
268.974	2.40994
270.243	2.35963
271.561	2.30554
272.936	2.24704
274.375	2.18331
275.886	2.11327
277.477	2.03545
279.154	1.94774
280.926	1.84693
282.8	1.72785
284.784	1.58111
286.884	1.38668
289.109	1.0863
