Uv/Vis Spectrum: 4,5-dihydro-4-methyl-5-oxo-1-phenyl-1H-pyrazole-3-carboxylic acid, ethyl ester
Formula: C13H14N2O3
CAS: 60178-94-1
Melting point: 148-149
Instrument: Spectronic 600
Origin: INSTITUTE OF ENERGY PROBLEMS OF CHEMICAL PHYSICS, RAS
Wavelength (nm)	Logarithm epsilon
219.378	4.102
220.878	4.09
222.378	4.079
223.878	4.07
225.378	4.062
226.878	4.057
228.378	4.054
229.878	4.054
231.378	4.055
232.878	4.058
234.378	4.063
235.878	4.069
237.378	4.076
238.878	4.084
240.378	4.092
241.878	4.1
243.378	4.109
244.878	4.116
246.378	4.124
247.878	4.131
249.378	4.137
250.878	4.143
252.378	4.147
253.878	4.151
255.378	4.154
256.878	4.156
258.378	4.156
259.878	4.155
261.378	4.152
262.878	4.146
264.378	4.137
265.878	4.124
267.378	4.105
268.818	4.079
270.318	4.047
271.818	4.008
273.318	3.965
274.818	3.919
276.318	3.871
277.818	3.824
279.318	3.776
280.818	3.73
282.318	3.683
283.818	3.637
285.318	3.59
286.818	3.543
288.318	3.495
289.818	3.446
291.318	3.397
292.818	3.348
294.318	3.301
295.714	3.258
297.214	3.218
298.714	3.184
300.214	3.157
301.714	3.135
303.214	3.119
304.714	3.106
306.214	3.098
307.714	3.093
309.214	3.09
310.714	3.089
312.214	3.09
313.714	3.092
315.214	3.095
316.714	3.098
318.214	3.101
319.714	3.105
321.214	3.109
322.714	3.113
322.808	3.113
324.308	3.119
325.808	3.122
327.308	3.122
328.808	3.121
330.308	3.118
331.808	3.115
333.308	3.11
334.808	3.105
336.308	3.099
337.808	3.092
339.308	3.084
340.808	3.075
342.308	3.065
343.808	3.054
345.308	3.041
