Uv/Vis Spectrum: 1-(1-methylethenyl)-2-nitrobenzene
Formula: C9H9NO2
CAS: 60246-97-0
Boiling point: 134/ 30 mm
Instrument: Cary 15
Origin: INSTITUTE OF ENERGY PROBLEMS OF CHEMICAL PHYSICS, RAS
Wavelength (nm)	Logarithm epsilon
222.083	3.909
223.083	3.904
224.083	3.9
225.083	3.896
226.083	3.893
227.083	3.891
228.083	3.889
229.083	3.887
230.083	3.884
231.083	3.882
232.083	3.88
233.083	3.877
234.083	3.874
235.083	3.871
236.083	3.867
237.083	3.863
238.083	3.858
239.083	3.853
240.083	3.847
241.083	3.841
242.083	3.834
243.083	3.826
244.083	3.818
245.083	3.809
246.083	3.799
247.083	3.789
248.083	3.778
249.083	3.767
250.083	3.755
251.083	3.742
252.083	3.729
253.083	3.715
254.083	3.701
255.083	3.686
256.083	3.671
257.083	3.656
258.083	3.64
259.083	3.624
260.083	3.608
261.083	3.592
262.083	3.576
263.083	3.559
264.083	3.543
265.083	3.528
266.083	3.512
267.083	3.497
268.083	3.481
269.083	3.467
270.083	3.452
271.083	3.437
272.083	3.423
273.083	3.408
274.083	3.394
275.083	3.378
275.804	3.372
276.804	3.349
277.804	3.329
278.804	3.31
279.804	3.294
280.804	3.279
281.804	3.266
282.804	3.254
283.804	3.242
284.804	3.231
285.804	3.221
286.804	3.211
287.804	3.202
288.804	3.193
289.804	3.184
290.804	3.175
291.804	3.167
292.804	3.158
293.804	3.15
294.804	3.142
295.804	3.134
296.804	3.126
297.804	3.119
298.804	3.111
299.804	3.103
300.804	3.096
301.804	3.089
302.804	3.081
303.804	3.074
304.804	3.067
305.804	3.06
306.804	3.053
307.804	3.046
308.804	3.039
309.804	3.032
310.804	3.025
311.804	3.018
312.804	3.011
313.804	3.004
314.804	2.997
315.804	2.99
316.804	2.983
317.804	2.975
318.804	2.968
319.804	2.961
320.804	2.953
321.804	2.946
322.804	2.938
323.804	2.931
324.804	2.923
325.804	2.916
326.804	2.909
327.804	2.901
328.804	2.894
329.804	2.887
330.804	2.881
331.804	2.874
332.804	2.868
333.804	2.862
334.804	2.856
335.804	2.851
336.804	2.845
337.804	2.839
338.804	2.833
339.613	2.829
340.613	2.821
341.613	2.813
342.613	2.805
343.613	2.796
344.613	2.787
345.613	2.777
346.613	2.767
347.613	2.756
348.613	2.744
349.613	2.732
350.613	2.719
351.613	2.706
352.613	2.691
353.613	2.677
354.613	2.661
355.613	2.645
356.613	2.629
357.613	2.612
358.613	2.594
359.613	2.576
360.613	2.557
361.613	2.538
362.613	2.519
363.613	2.499
364.613	2.479
365.613	2.459
366.613	2.438
367.613	2.417
368.613	2.396
369.613	2.374
370.613	2.353
371.613	2.331
372.613	2.309
373.613	2.288
374.613	2.265
375.613	2.243
376.613	2.221
377.613	2.199
378.613	2.176
379.613	2.154
380.613	2.131
381.613	2.108
382.742	2.081
