Uv/Vis Spectrum: Naphthalene, 1,8-dinitro-
Formula: C10H6N2O4
CAS: 602-38-0
Melting point: 167
Instrument: Cary 14
Origin: INSTITUTE OF ENERGY PROBLEMS OF CHEMICAL PHYSICS, RAS
Wavelength (nm)	Logarithm epsilon
193.09	4.48
193.98	4.509
194.95	4.535
195.93	4.563
196.92	4.591
198.09	4.616
199.27	4.642
200.56	4.663
201.94	4.678
203.53	4.686
205.14	4.682
206.68	4.669
207.97	4.646
209.18	4.623
210.4	4.599
211.55	4.571
212.51	4.539
213.48	4.507
214.46	4.475
215.35	4.443
216.25	4.409
217.15	4.377
218.17	4.343
219.19	4.311
220.64	4.288
222.54	4.279
224.35	4.292
225.98	4.309
227.52	4.332
229.08	4.354
230.78	4.373
232.62	4.388
234.61	4.377
236.27	4.352
237.59	4.32
238.68	4.288
239.91	4.258
240.9	4.224
241.77	4.19
242.78	4.155
243.67	4.121
244.56	4.087
245.46	4.053
246.24	4.019
247.02	3.985
247.67	3.946
248.46	3.912
249.12	3.874
249.66	3.838
250.73	3.806
251.54	3.772
252.49	3.737
253.45	3.703
254.56	3.669
255.67	3.637
256.94	3.605
258.5	3.573
260.23	3.545
261.98	3.52
264.35	3.503
266.92	3.488
269.7	3.486
272.53	3.486
275.42	3.488
278.21	3.503
280.89	3.52
283.1	3.545
285	3.575
287.1	3.605
289.06	3.635
291.4	3.663
293.79	3.688
296.02	3.716
298.29	3.742
300.98	3.765
303.52	3.791
306.31	3.814
309.56	3.833
313.09	3.848
316.48	3.859
320.39	3.859
324.4	3.853
328.27	3.84
332.01	3.818
335.58	3.797
338.75	3.769
341.47	3.742
343.99	3.712
346.28	3.68
348.61	3.648
350.97	3.616
353.09	3.582
354.97	3.548
356.87	3.514
359.06	3.479
360.73	3.443
362.4	3.409
363.82	3.373
365.52	3.336
366.96	3.298
368.41	3.262
369.87	3.226
371.04	3.187
372.52	3.151
373.71	3.113
374.91	3.074
376.12	3.036
377.34	2.997
378.25	2.959
379.48	2.923
380.41	2.884
381.34	2.846
382.59	2.81
383.22	2.771
384.17	2.733
385.43	2.697
386.39	2.658
387.03	2.62
