Uv/Vis Spectrum: 9-Phenylantharcene
Formula: C20H14
CAS: 602-55-1
Instrument: Zeiss spectrograph
Origin: INSTITUTE OF ENERGY PROBLEMS OF CHEMICAL PHYSICS, RAS
Wavelength (nm)	Logarithm epsilon
239.876	4.65245
239.895	4.66025
239.923	4.66797
239.955	4.6755
240.443	4.71641
240.464	4.72135
240.495	4.7263
240.53	4.73124
240.905	4.78279
240.96	4.78981
241.02	4.79682
241.042	4.85069
241.088	4.80384
241.519	4.86758
241.935	4.87877
242.277	4.92837
242.283	4.88984
242.283	4.88984
242.364	4.97388
242.798	5.00518
243.502	5.03302
243.876	5.04538
244.25	5.05756
244.624	5.06965
244.905	5.11458
245.067	5.12121
245.238	5.12775
245.414	5.13412
246.415	5.18962
246.439	5.19665
246.646	5.20558
247.214	5.22407
248.851	5.27407
249.54	5.29266
250.144	5.31166
250.479	5.3323
251.85	5.34354
251.95	5.34439
252.051	5.34515
252.152	5.34572
252.893	5.35671
253.135	5.35886
253.376	5.36102
253.618	5.36317
256.584	5.34299
256.841	5.34103
257.12	5.33623
257.658	5.32451
259.007	5.25475
259.149	5.2407
259.3	5.22648
259.455	5.21217
260.358	5.16155
260.578	5.146
260.802	5.13036
261.035	5.11454
261.52	5.05511
261.596	5.04115
261.676	5.02709
261.765	5.01286
262.252	4.93075
262.293	4.91069
262.34	4.94464
262.669	4.96183
262.778	4.85127
262.784	4.84551
262.789	4.83976
262.795	4.83401
263.492	4.76603
263.648	4.7521
263.804	4.73808
263.96	4.72387
264.632	4.68138
264.805	4.66312
264.951	4.65379
265.196	4.64543
265.371	4.57066
265.601	4.54516
265.803	4.52942
265.956	4.51375
266.777	4.42239
266.954	4.4181
267.132	4.40879
267.463	4.38648
268.821	4.28671
269.002	4.2735
269.193	4.26011
269.389	4.24664
270.608	4.18504
270.827	4.16951
271.05	4.15398
271.283	4.13844
272.428	4.04927
272.714	4.03252
273.01	4.01567
273.311	3.99864
274.839	3.95239
275.059	3.93685
275.283	3.92132
275.515	3.90579
277.065	3.83816
277.467	3.82217
277.869	3.80599
278.271	3.78972
279.709	3.73274
280.174	3.71415
280.374	3.70368
280.48	3.69234
282.771	3.61433
283.132	3.59967
283.497	3.58501
283.871	3.57036
285.208	3.49196
285.402	3.4706
285.575	3.46064
285.876	3.45358
287.231	3.37765
287.488	3.36447
287.745	3.35112
288.002	3.33767
289.871	3.25495
290.174	3.23658
290.476	3.21819
290.779	3.19981
292.734	3.13276
292.769	3.12551
292.969	3.11504
293.505	3.09237
296.417	3.04462
297.083	3.03811
297.518	3.03114
297.909	3.0152
301.308	3.00836
301.695	3.00798
302.081	3.00742
302.468	3.00677
302.775	3.00443
303.371	3.00599
304.318	3.00962
306.239	3.01447
306.239	3.01447
306.772	3.03551
307.748	3.05071
308.832	3.06239
311.102	3.12951
311.297	3.13892
311.496	3.14816
311.704	3.1573
312.699	3.21979
312.816	3.23051
312.943	3.24115
313.074	3.2516
313.857	3.32223
313.985	3.33737
314.112	3.35233
314.24	3.3672
314.916	3.42299
315.152	3.42939
315.461	3.44102
315.841	3.45296
317.704	3.47962
317.906	3.48123
318.113	3.48265
318.329	3.48399
321.067	3.48921
322.117	3.49539
323.167	3.50157
324.217	3.50775
325.662	3.54658
325.841	3.56456
325.912	3.5814
326.042	3.59361
328.207	3.64382
328.368	3.65168
328.538	3.65946
328.712	3.66705
330.351	3.71459
330.552	3.73014
330.939	3.74431
331.142	3.75767
334.132	3.83577
334.514	3.84033
334.895	3.8447
335.277	3.84898
337.389	3.84984
337.532	3.84854
337.676	3.84706
337.82	3.84549
338.124	3.84561
338.49	3.85216
338.622	3.85669
338.635	3.86309
341.05	3.86612
341.088	3.86848
341.126	3.87066
341.165	3.87275
343.629	3.92884
343.967	3.93626
344.311	3.94349
344.663	3.95064
346.121	3.97673
346.817	3.97701
347.523	3.97729
348.233	3.97758
349.724	3.94858
350.025	3.93895
350.362	3.93309
351.024	3.92772
351.024	3.92772
351.033	3.91938
351.041	3.91086
351.05	3.90224
351.05	3.90224
351.45	3.90032
351.782	3.89544
352.328	3.88343
354.227	3.87351
355.507	3.86954
356.004	3.86707
356.146	3.86401
358.256	3.86692
358.739	3.87152
359.222	3.87593
359.705	3.88025
361.158	3.91045
361.3	3.9105
361.442	3.91056
361.585	3.91062
361.585	3.91062
362.601	3.94236
363.237	3.97439
363.803	4.00979
364.825	4.04433
365.047	4.05675
365.261	4.06452
365.648	4.07427
366.01	4.11923
366.216	4.123
366.43	4.12668
366.65	4.13018
367.926	4.11343
368.235	4.10411
368.352	4.09755
368.377	4.08812
368.61	4.05861
368.76	4.05003
368.911	4.04146
369.062	4.03289
369.526	3.99484
369.664	3.98449
369.811	3.97397
369.963	3.96335
370.65	3.90565
370.761	3.89664
370.877	3.88753
371.002	3.87825
373.851	3.87323
374.297	3.87494
374.748	3.87646
375.208	3.8779
375.208	3.8779
376.244	3.91907
376.857	3.96281
377.825	4.00477
377.825	4.00477
378.091	4.02996
378.304	4.07528
378.346	4.05323
379.094	4.11795
379.291	4.12531
379.492	4.13249
379.703	4.13958
379.888	4.1783
380.145	4.19115
380.412	4.20401
380.683	4.21686
381.924	4.25561
382.193	4.25734
382.47	4.25899
382.752	4.26046
385.718	4.24028
385.935	4.23203
386.162	4.22359
386.393	4.21506
386.841	4.17248
386.922	4.15841
387.012	4.14417
387.107	4.12983
387.981	4.08783
388.28	4.07659
388.505	4.06212
388.923	3.99858
388.923	3.99858
388.969	4.01422
389.02	4.02987
389.08	4.04551
389.08	4.04551
389.167	3.99814
389.411	3.99753
389.656	3.99682
390.004	3.97352
390.157	3.96236
390.311	3.95102
390.464	3.93958
391.352	3.88443
391.465	3.87254
391.578	3.86055
391.692	3.84838
392.505	3.78663
392.662	3.77107
392.82	3.7555
392.977	3.73994
393.649	3.69787
393.875	3.67246
394.048	3.65938
394.121	3.65118
394.789	3.6128
395.005	3.60014
395.226	3.58749
395.456	3.57483
395.702	3.53217
395.92	3.51746
396.143	3.50274
396.212	3.44726
396.375	3.48804
396.429	3.4346
396.65	3.42195
396.88	3.4093
396.913	3.37518
397.131	3.36117
397.353	3.34697
397.585	3.33269
398.497	3.27344
398.651	3.26076
398.806	3.24807
398.961	3.23539
399.649	3.17605
399.655	3.17029
399.661	3.16454
399.666	3.15878
399.666	3.15878
399.809	3.15884
399.951	3.1589
400.093	3.15896
400.093	3.15896
400.131	3.14889
400.305	3.14254
400.748	3.13373
400.748	3.13373
400.827	3.11526
400.912	3.09679
401.005	3.07832
401.005	3.07832
401.316	3.07199
401.457	3.06715
401.552	3.05963
401.926	3.01044
402.317	2.99953
402.525	2.98571
402.597	2.96836
403.07	2.92127
403.143	2.91018
403.22	2.89901
403.307	2.88765
403.788	2.83234
403.825	2.82166
403.871	2.81099
403.921	2.80032
404.709	2.74307
404.743	2.7242
404.867	2.71103
405.186	2.69228
