Uv/Vis Spectrum: Benzoic acid, pentafluoro-
Formula: C7HF5O2
CAS: 602-94-8
Melting point: 105.0-105.5
Instrument: SFD-2
Origin: INSTITUTE OF ENERGY PROBLEMS OF CHEMICAL PHYSICS, RAS
Wavelength (nm)	Logarithm epsilon
224.79	3.495
227.95	3.465
231.12	3.431
233.23	3.391
235.34	3.351
236.39	3.306
238.5	3.266
239.56	3.221
241.14	3.181
242.19	3.136
243.78	3.091
244.3	3.046
245.36	3.001
246.94	2.962
248.52	2.922
250.63	2.882
253.27	2.847
258.02	2.832
262.76	2.837
267.51	2.832
270.68	2.802
273.31	2.762
274.89	2.722
276.48	2.682
278.06	2.637
279.11	2.592
279.64	2.547
281.22	2.503
282.28	2.458
283.33	2.413
284.39	2.368
285.44	2.323
285.97	2.278
286.5	2.233
287.55	2.188
288.61	2.143
289.14	2.098
289.66	2.053
290.72	2.009
291.77	1.964
292.83	1.919
293.88	1.874
