Uv/Vis Spectrum: Anthracene, 9-nitro-
Formula: C14H9NO2
CAS: 602-60-8
Melting point: 146
Instrument: Zeiss PMQ II
Origin: INSTITUTE OF ENERGY PROBLEMS OF CHEMICAL PHYSICS, RAS
Wavelength (nm)	Logarithm epsilon
192.77	4.09
193.03	4.085
193.29	4.08
193.53	4.076
193.79	4.071
194.21	4.062
194.73	4.053
195.26	4.044
195.79	4.035
196.32	4.026
196.86	4.017
197.34	4.01
197.94	4.008
198.49	4.008
199.03	4.008
199.64	4.012
200.14	4.017
200.7	4.023
201.29	4.029
201.81	4.036
202.42	4.044
202.98	4.051
203.53	4.056
204.18	4.064
204.69	4.071
205.28	4.08
205.83	4.088
206.45	4.094
207.05	4.103
207.64	4.111
208.25	4.119
208.84	4.125
209.48	4.132
210.09	4.139
210.68	4.145
211.31	4.151
211.9	4.156
212.56	4.16
213.24	4.165
213.78	4.169
214.37	4.173
215.12	4.177
215.74	4.179
216.38	4.18
217.01	4.18
217.67	4.178
218.28	4.175
218.94	4.171
219.68	4.162
220.36	4.153
220.98	4.137
221.71	4.117
222.4	4.09
223.09	4.071
223.78	4.053
224.48	4.04
225.18	4.04
225.89	4.058
226.6	4.08
227.31	4.103
228.03	4.126
228.71	4.145
229.45	4.171
230.26	4.208
230.97	4.245
231.7	4.28
232.45	4.317
233.26	4.363
233.96	4.403
234.73	4.448
235.49	4.489
236.27	4.53
237.04	4.571
237.83	4.621
238.63	4.67
239.41	4.712
240.21	4.757
241.01	4.798
241.82	4.835
242.64	4.871
243.46	4.907
244.28	4.935
245.11	4.962
245.95	4.98
246.37	4.989
246.8	4.998
247.22	5.007
247.64	5.016
248.33	5.033
249.4	5.051
250.81	5.071
252.43	5.081
253.16	5.058
253.57	4.995
254.11	4.919
254.65	4.835
255.56	4.671
256.47	4.558
257.38	4.439
258.31	4.349
259.24	4.271
260.17	4.208
261.12	4.149
262.07	4.099
263.03	4.058
263.99	4.021
264.96	3.994
265.94	3.976
266.93	3.949
267.92	3.908
268.92	3.876
269.93	3.835
270.94	3.794
271.97	3.758
273	3.717
274.04	3.681
275.09	3.64
276.14	3.603
277.2	3.567
278.28	3.522
279.36	3.463
280.44	3.408
281.54	3.353
282.65	3.308
283.76	3.258
284.88	3.208
286.01	3.163
287.15	3.122
288.29	3.088
289.46	3.054
290.63	3.013
291.81	2.972
293	2.922
294.2	2.895
295.4	2.886
296.62	2.876
297.85	2.876
299.08	2.876
300.33	2.876
301.59	2.881
302.86	2.886
304.14	2.895
305.43	2.904
306.73	2.913
308.04	2.926
309.37	2.949
310.7	2.995
312.05	3.026
313.41	3.058
314.78	3.085
316.16	3.104
317.55	3.117
318.96	3.135
320.38	3.158
321.81	3.185
323.26	3.217
324.71	3.249
326.19	3.285
327.67	3.317
329.17	3.344
330.68	3.363
332.21	3.381
333.75	3.39
335.3	3.399
336.87	3.413
338.45	3.426
340.05	3.444
341.67	3.476
343.3	3.526
344.94	3.562
346.6	3.585
348.28	3.59
349.97	3.576
351.68	3.562
353.41	3.544
355.15	3.526
356.91	3.535
358.69	3.558
360.49	3.594
362.3	3.631
364.13	3.662
365.98	3.667
367.85	3.649
369.74	3.608
371.65	3.567
373.5	3.532
375.53	3.526
377.5	3.535
379.49	3.553
381.5	3.576
383.53	3.594
385.58	3.581
387.66	3.544
389.76	3.485
391.88	3.431
394.03	3.399
396.19	3.376
398.39	3.358
400.6	3.34
402.84	3.322
405.11	3.308
407.4	3.294
409.72	3.276
412.07	3.249
414.44	3.217
416.84	3.185
419.27	3.154
421.72	3.122
424.21	3.09
426.72	3.063
429.27	3.026
431.84	2.99
434.45	2.954
436.97	2.898
439.76	2.808
442.46	2.695
445.19	2.577
447.96	2.468
450.77	2.363
453.61	2.259
456.49	2.163
459.4	2.068
462.35	1.972
465.34	1.841
468.36	1.75
471.43	1.672
474.54	1.591
