Uv/Vis Spectrum: Benzene, 1,3,5-trimethyl-2-nitro-
Formula: C9H11NO2
CAS: 603-71-4
Melting point: 44
Boiling point: 255
Instrument: Spectrophotometer SF-16
Origin: INSTITUTE OF ENERGY PROBLEMS OF CHEMICAL PHYSICS, RAS
Wavelength (nm)	Logarithm epsilon
210	4.58
211	4.57
212	4.54
213	4.53
214	4.5
215	4.46
216	4.43
217	4.38
218	4.34
219	4.24
220	4.13001
221	4.04
222	3.96
223	3.88
224	3.8
225	3.74
226	3.67
227	3.59
228	3.57
229	3.53
230	3.50999
231	3.5
232	3.49
233	3.48
234	3.47
235	3.46
236	3.45
237	3.44
238	3.44
239	3.44
240	3.44
241	3.44
242	3.44
243	3.44
244	3.44
245	3.45
246	3.45
247	3.45
248	3.45
249	3.46
250	3.47
251	3.48
252	3.48
253	3.48
254	3.48
255	3.49
256	3.49
257	3.49
258	3.49
259	3.49
260	3.48001
261	3.48
262	3.48
263	3.47
264	3.47
265	3.47
266	3.46
267	3.46
268	3.46
269	3.45
270	3.45
271	3.44
272	3.42
273	3.41
274	3.41
275	3.39
276	3.37
277	3.36
278	3.34
279	3.32
280	3.30999
281	3.29
282	3.27
283	3.25
284	3.24
285	3.21
286	3.2
287	3.18
288	3.16
289	3.14
290	3.13001
291	3.11
292	3.09
293	3.07
294	3.05
295	3.04
296	3.03
297	3.01
298	3
299	2.99
300	2.98
301	2.95
302	2.94
303	2.93
304	2.91
305	2.9
306	2.89
307	2.88
308	2.86
309	2.85
310	2.84
311	2.83
312	2.82
313	2.81
314	2.81
315	2.8
316	2.79
317	2.78
318	2.78
319	2.77
320	2.77
321	2.77
322	2.76
323	2.77
324	2.77
325	2.77
326	2.77
327	2.77
328	2.77
329	2.77
330	2.77
331	2.77
332	2.77
333	2.77
334	2.77
335	2.77
336	2.77
337	2.77
338	2.77
339	2.76
340	2.75
341	2.74
342	2.74
343	2.73
344	2.72
345	2.72
346	2.71
347	2.7
348	2.69
349	2.69
350	2.68
351	2.67
352	2.67
353	2.66
354	2.64
355	2.63
356	2.61
357	2.59
358	2.59
359	2.58
