Uv/Vis Spectrum: Urea, N,N-diphenyl-
Formula: C13H12N2O
CAS: 603-54-3
Instrument: Unicam
Origin: INSTITUTE OF ENERGY PROBLEMS OF CHEMICAL PHYSICS, RAS
Wavelength (nm)	Logarithm epsilon
225.36	3.711
225.48	3.711
225.6	3.707
225.72	3.707
225.84	3.707
225.96	3.703
226.08	3.703
226.2	3.699
226.32	3.699
226.44	3.699
226.56	3.695
226.68	3.695
226.8	3.695
226.92	3.691
227.04	3.691
227.16	3.686
227.52	3.682
228.24	3.66
228.96	3.656
229.68	3.651
230.4	3.656
231.12	3.665
231.84	3.682
232.56	3.711
233.28	3.738
234	3.767
234.72	3.804
235.44	3.835
236.16	3.861
236.88	3.894
237.6	3.939
238.32	3.988
239.04	4.036
239.76	4.067
240.48	4.101
241.2	4.132
241.92	4.16
242.64	4.198
243.36	4.239
244.08	4.275
244.8	4.309
245.52	4.337
246.24	4.366
246.96	4.388
247.68	4.419
248.4	4.438
249.12	4.462
249.84	4.482
250.56	4.498
251.28	4.507
252	4.519
252.72	4.532
253.44	4.538
254.16	4.546
254.88	4.553
255.6	4.557
256.32	4.559
257.04	4.558
257.76	4.557
258.48	4.552
259.2	4.549
259.92	4.541
260.64	4.535
261.36	4.526
262.08	4.514
262.8	4.5
263.52	4.478
264.24	4.461
264.96	4.438
265.68	4.417
266.4	4.39
267.12	4.362
267.84	4.338
268.59	4.303
269.28	4.276
269.94	4.247
270.72	4.213
271.49	4.177
272.16	4.138
272.88	4.082
273.6	4.016
274.32	3.973
275.04	3.919
275.76	3.881
276.48	3.835
277.2	3.798
277.92	3.749
278.64	3.695
279.36	3.642
280.08	3.565
280.8	3.506
281.81	3.432
282.79	3.369
283.44	3.316
284.28	3.252
285.12	3.19
286.08	3.119
287.04	3.051
287.88	2.949
