Uv/Vis Spectrum: Triphenylamine
Formula: C18H15N
CAS: 603-34-9
Melting point: 127
Boiling point: 365
Instrument: Beckman DU
Origin: INSTITUTE OF ENERGY PROBLEMS OF CHEMICAL PHYSICS, RAS
Wavelength (nm)	Logarithm epsilon
213.159	4.3235
213.159	4.32822
213.16	4.31874
213.161	4.33287
213.162	4.31392
213.164	4.33748
213.167	4.30904
213.168	4.34203
213.172	4.30411
213.174	4.34654
213.179	4.29912
213.181	4.35099
213.188	4.29406
213.19	4.3554
213.199	4.28895
213.2	4.35977
213.211	4.28377
213.211	4.36408
213.224	4.36835
213.224	4.27853
213.24	4.27322
213.256	4.26784
213.275	4.2624
213.295	4.25688
213.317	4.25129
213.341	4.24562
213.367	4.23988
213.394	4.23406
213.423	4.22816
213.454	4.22218
213.486	4.2161
213.521	4.20995
213.557	4.2037
213.596	4.19736
213.636	4.19092
213.678	4.18439
213.722	4.17776
213.768	4.17102
213.816	4.16417
213.866	4.15721
213.918	4.15014
213.972	4.14295
214.029	4.13564
214.087	4.1282
214.147	4.12063
214.21	4.11293
214.274	4.10508
214.341	4.09709
214.411	4.08896
214.482	4.08066
214.555	4.07221
214.631	4.06358
214.709	4.05478
214.709	4.05478
215.208	4.04082
215.631	4.02898
216.011	4.01881
216.383	4.00977
216.779	4.00126
217.234	3.99263
217.78	3.98317
218.452	3.9721
219.283	3.95856
220.306	3.94154
220.306	3.94154
223.124	3.92578
225.025	3.91414
226.467	3.90363
227.902	3.89089
229.788	3.87213
229.788	3.87213
230.205	3.85809
230.622	3.84357
231.039	3.82855
231.457	3.813
231.874	3.79687
232.291	3.78011
232.708	3.76268
233.125	3.74452
233.543	3.72558
233.96	3.70576
234.377	3.685
234.794	3.6632
235.211	3.64024
235.629	3.616
236.046	3.59033
236.463	3.56305
236.88	3.53394
237.297	3.50273
237.714	3.4691
238.132	3.43266
238.549	3.39287
238.966	3.34907
239.383	3.30034
239.383	3.30034
241.854	3.19403
243.69	3.12125
246.466	3.02792
246.466	3.02792
247.78	3.03649
249.067	3.06038
250.324	3.09609
251.55	3.13982
252.742	3.18819
253.9	3.23855
255.021	3.28901
256.104	3.33831
257.147	3.38567
258.147	3.43061
259.105	3.47288
260.017	3.51237
260.882	3.54906
261.698	3.58296
262.464	3.61413
263.178	3.64263
263.838	3.66852
264.442	3.69184
264.988	3.71265
265.476	3.73097
265.902	3.7468
266.267	3.76014
266.566	3.77096
266.8	3.77918
266.8	3.77918
266.906	3.79549
267.024	3.81122
267.155	3.82639
267.296	3.84105
267.449	3.85523
267.612	3.86897
267.786	3.88228
267.97	3.8952
268.164	3.90774
268.368	3.91993
268.581	3.93179
268.803	3.94333
269.034	3.95458
269.274	3.96553
269.522	3.97622
269.777	3.98665
270.041	3.99684
270.312	4.00679
270.589	4.01651
270.874	4.02602
271.165	4.03533
271.463	4.04444
271.766	4.05336
272.075	4.0621
272.39	4.07067
272.71	4.07907
273.034	4.08731
273.363	4.09539
273.697	4.10332
274.034	4.11111
274.375	4.11876
274.719	4.12628
275.067	4.13367
275.417	4.14093
275.77	4.14807
276.125	4.15509
276.482	4.162
276.841	4.1688
277.201	4.17549
277.562	4.18208
277.924	4.18856
278.287	4.19496
278.65	4.20125
279.013	4.20745
279.376	4.21357
279.738	4.21959
280.099	4.22553
280.459	4.23139
280.818	4.23717
281.175	4.24287
281.53	4.2485
281.883	4.25404
282.233	4.25952
282.58	4.26493
282.924	4.27027
283.265	4.27554
283.602	4.28074
283.935	4.28588
283.935	4.28588
284.041	4.28712
284.243	4.28965
284.536	4.29329
284.916	4.29786
285.38	4.30318
285.923	4.30908
286.542	4.31538
287.232	4.32192
287.99	4.32856
288.811	4.33513
289.692	4.34151
290.628	4.34757
291.616	4.35319
292.651	4.35824
293.729	4.36263
294.847	4.36622
296.001	4.36893
297.186	4.37063
297.186	4.37063
297.791	4.37032
298.447	4.36995
299.128	4.36956
299.128	4.36956
299.627	4.36756
300.051	4.3657
300.434	4.36372
300.809	4.36132
301.213	4.35822
301.678	4.35412
302.238	4.34868
302.93	4.34158
303.785	4.33242
304.84	4.32077
304.84	4.32077
304.981	4.31599
305.118	4.31116
305.253	4.30628
305.386	4.30135
305.517	4.29636
305.645	4.29132
305.772	4.28622
305.897	4.28106
306.021	4.27585
306.144	4.27057
306.267	4.26522
306.389	4.25982
306.511	4.25434
306.633	4.2488
306.755	4.24319
306.878	4.23751
307.002	4.23176
307.127	4.22593
307.253	4.22002
307.381	4.21403
307.511	4.20796
307.642	4.20181
307.777	4.19557
307.914	4.18924
308.053	4.18281
308.196	4.17629
308.342	4.16968
308.492	4.16296
308.646	4.15614
308.804	4.14921
308.967	4.14218
309.134	4.13502
309.306	4.12775
309.483	4.12035
309.666	4.11283
309.854	4.10518
310.048	4.09738
310.249	4.08945
310.456	4.08137
310.67	4.07314
310.89	4.06475
311.118	4.05619
311.353	4.04746
311.596	4.03855
311.848	4.02946
312.107	4.02017
312.375	4.01068
312.651	4.00097
312.937	3.99105
313.232	3.98089
313.536	3.97048
313.85	3.95982
314.175	3.94889
314.509	3.93768
314.854	3.92617
315.21	3.91435
315.577	3.90219
315.955	3.88968
316.345	3.87679
316.747	3.86351
317.16	3.84981
317.587	3.83566
318.025	3.82103
318.477	3.80588
318.941	3.79019
319.419	3.7739
319.911	3.75697
320.416	3.73935
320.935	3.72099
321.469	3.7018
322.018	3.68172
322.581	3.66066
323.16	3.63852
323.754	3.61518
324.363	3.59051
324.989	3.56434
325.63	3.53648
325.63	3.53648
326.91	3.49971
328.078	3.46253
329.173	3.42475
330.231	3.38607
331.291	3.34612
332.391	3.30436
333.568	3.26007
334.861	3.21224
336.306	3.15946
337.942	3.09966
339.807	3.02966
341.938	2.94424
344.372	2.8338
347.149	2.67747
