Uv/Vis Spectrum: 7-(methylthio)-1H-pyrazolo[4,3-d]pyrimidine
Formula: C6H6N4S
CAS: 60355-61-5
Instrument: Unicam SP-800
Origin: INSTITUTE OF ENERGY PROBLEMS OF CHEMICAL PHYSICS, RAS
Wavelength (nm)	Logarithm epsilon
236.857	3.37
237.657	3.39
238.457	3.406
239.257	3.42
240.057	3.433
240.857	3.446
241.657	3.459
242.457	3.473
243.257	3.489
244.057	3.504
244.857	3.521
245.657	3.538
246.457	3.554
247.257	3.571
248.057	3.586
248.857	3.601
249.657	3.613
250.457	3.623
251.257	3.631
252.057	3.637
252.857	3.639
253.657	3.638
254.457	3.635
255.257	3.629
256.057	3.621
256.857	3.611
257.657	3.6
258.457	3.588
259.257	3.576
260.057	3.563
261.008	3.548
261.808	3.53
262.608	3.517
263.408	3.508
264.208	3.502
265.008	3.497
265.808	3.494
266.608	3.493
267.408	3.492
268.208	3.492
269.008	3.494
269.808	3.496
270.608	3.5
271.408	3.504
272.208	3.51
273.008	3.518
273.808	3.527
274.608	3.537
275.408	3.549
276.208	3.563
277.008	3.578
277.808	3.595
278.608	3.613
279.408	3.631
280.208	3.65
281.008	3.67
281.808	3.69
282.608	3.709
283.408	3.728
284.208	3.746
285.008	3.764
285.808	3.78
286.608	3.796
287.408	3.813
288.063	3.826
288.12	3.827
288.92	3.85
289.72	3.869
290.52	3.887
291.32	3.903
292.12	3.918
292.92	3.934
293.72	3.949
294.52	3.964
295.32	3.979
296.12	3.992
296.92	4.004
297.72	4.015
298.52	4.023
299.32	4.029
300.12	4.034
300.92	4.038
301.72	4.043
302.328	4.05
303.079	4.056
303.829	4.063
304.58	4.071
305.331	4.076
306.082	4.083
306.832	4.085
307.583	4.083
308.334	4.073
309.085	4.061
309.835	4.045
310.586	4.032
311.337	4.021
312.088	4.009
312.838	4
313.589	3.995
314.34	3.992
315.091	3.989
315.841	3.989
316.592	3.989
317.343	3.986
318.094	3.983
318.844	3.97
319.595	3.944
320.395	3.895
321.195	3.832
321.995	3.761
322.795	3.688
323.595	3.615
324.395	3.544
325.195	3.478
325.995	3.416
326.795	3.359
327.595	3.306
328.395	3.257
329.195	3.21
329.995	3.163
330.795	3.116
331.595	3.066
332.395	3.012
333.195	2.953
333.995	2.888
334.795	2.816
335.595	2.74
