Uv/Vis Spectrum: 1,3,6,8,11,13-hexachloro-4,10-dihydroxydinaphtho[2,1-b:1',2'-d]furan-5,9-dione
Formula: C20H4Cl6O5
CAS: 60355-13-7
Melting point: 300 dec.
Instrument: unknown
Origin: INSTITUTE OF ENERGY PROBLEMS OF CHEMICAL PHYSICS, RAS
Wavelength (nm)	Logarithm epsilon
303.095	3.769
304.003	3.749
306.19	3.707
309.284	3.665
312.379	3.634
315.474	3.602
318.569	3.566
321.663	3.538
324.758	3.517
327.853	3.507
331.02	3.499
334.173	3.505
337.137	3.517
340.232	3.538
343.327	3.566
346.422	3.61
349.516	3.657
352.611	3.7
355.706	3.739
358.801	3.775
361.896	3.808
364.99	3.838
368.085	3.867
371.18	3.894
374.275	3.915
377.369	3.939
380.464	3.962
383.559	3.984
386.654	4.008
389.749	4.024
392.843	4.037
395.938	4.046
399.033	4.052
402.128	4.055
405.222	4.049
408.317	4.046
411.412	4.037
414.326	4.025
417.602	4.001
420.696	3.987
423.791	3.973
426.886	3.958
429.981	3.939
433.075	3.927
436.17	3.907
439.265	3.885
442.36	3.872
445.455	3.858
448.549	3.848
451.644	3.848
454.739	3.858
457.834	3.872
460.928	3.885
464.023	3.907
467.118	3.927
470.213	3.951
473.308	3.97
476.402	3.994
479.497	4.015
482.592	4.034
485.687	4.055
488.781	4.079
491.876	4.101
494.971	4.122
498.066	4.144
501.161	4.17
504.255	4.193
507.35	4.216
510.445	4.236
513.54	4.252
516.634	4.269
519.729	4.283
522.824	4.295
525.919	4.307
529.014	4.319
532.108	4.329
535.203	4.336
538.298	4.344
541.393	4.352
544.487	4.356
547.582	4.359
550.677	4.362
553.772	4.365
556.867	4.364
559.961	4.362
563.056	4.358
566.151	4.347
569.246	4.335
572.34	4.319
575.435	4.297
578.53	4.274
581.625	4.25
584.72	4.224
587.814	4.199
590.909	4.173
594.004	4.142
597.099	4.109
600.193	4.073
603.288	4.034
606.383	3.987
609.478	3.931
612.573	3.881
615.667	3.802
618.762	3.739
621.857	3.672
624.952	3.61
628.046	3.547
631.141	3.474
634.236	3.399
637.331	3.326
640.426	3.237
643.52	3.125
