Uv/Vis Spectrum: 1,1'-Binaphtyl
Formula: C20H14
CAS: 604-53-5
Melting point: 160
Boiling point: 360; 240(12)
Instrument: Beckman spectrophotometer
Origin: INSTITUTE OF ENERGY PROBLEMS OF CHEMICAL PHYSICS, RAS
Wavelength (nm)	Logarithm epsilon
205.478	4.31893
206.214	4.34379
207.275	4.36893
208.564	4.39384
209.98	4.41802
211.425	4.44095
212.799	4.46212
214.004	4.48102
214.004	4.48102
214.855	4.49139
215.801	4.5031
216.827	4.51561
217.919	4.52839
219.06	4.54091
220.236	4.55265
221.431	4.56307
222.63	4.57165
223.818	4.57785
224.981	4.58114
226.102	4.581
227.166	4.5769
228.159	4.56831
229.065	4.55469
229.869	4.53552
230.555	4.51026
230.555	4.51026
230.963	4.4983
231.763	4.46684
233.476	4.4001
233.476	4.4001
233.913	4.37124
234.351	4.34227
234.79	4.31322
235.229	4.28408
235.668	4.25486
236.106	4.22558
236.544	4.19623
236.98	4.16683
237.415	4.13739
237.847	4.10791
238.278	4.0784
238.707	4.04886
239.132	4.01931
239.555	3.98976
239.974	3.9602
240.39	3.93065
240.801	3.90112
241.208	3.87162
241.208	3.87162
241.556	3.85208
241.985	3.82734
242.499	3.7991
243.1	3.76911
243.792	3.73908
244.579	3.71074
245.462	3.6858
246.446	3.666
247.534	3.65306
248.727	3.6487
248.727	3.6487
250.194	3.66448
251.632	3.68036
253.036	3.69672
254.4	3.71398
255.719	3.73253
256.985	3.75278
258.193	3.77513
259.337	3.79998
259.337	3.79998
260.209	3.81174
261.17	3.82231
263.045	3.84078
263.045	3.84078
264.271	3.86301
265.494	3.88578
266.717	3.90879
267.943	3.93172
269.178	3.95429
270.424	3.97618
271.684	3.99709
271.684	3.99709
272.979	4.00587
274.281	4.0145
275.587	4.02304
275.587	4.02304
276.759	4.04196
277.769	4.06156
278.665	4.08066
279.493	4.0981
280.301	4.11273
281.138	4.12337
282.049	4.12886
283.083	4.12805
284.287	4.11975
285.709	4.10281
285.709	4.10281
287.037	4.09438
287.693	4.08979
288.066	4.08848
288.066	4.08848
288.746	4.09492
290	4.10482
291.228	4.11632
291.228	4.11632
292.093	4.11546
292.819	4.1126
293.585	4.10199
293.585	4.10199
294.265	4.07375
294.954	4.04572
295.65	4.01788
296.354	3.99022
297.068	3.96271
297.79	3.93534
298.523	3.9081
299.266	3.88097
300.019	3.85393
300.784	3.82697
301.56	3.80007
302.348	3.7732
303.148	3.74637
303.961	3.71954
304.788	3.6927
305.628	3.66584
306.483	3.63893
307.353	3.61197
307.353	3.61197
308.793	3.55601
309.75	3.5193
310.444	3.49381
311.093	3.47148
311.916	3.44426
311.916	3.44426
314.512	3.37264
315.566	3.34156
315.975	3.33091
315.975	3.33091
316.642	3.29529
317.208	3.26166
317.556	3.24459
317.556	3.24459
318.186	3.20106
318.807	3.15839
319.417	3.1166
320.017	3.07574
320.605	3.03583
321.182	2.99689
321.745	2.95897
322.295	2.92207
322.83	2.88625
323.351	2.85151
323.856	2.8179
324.345	2.78545
324.817	2.75417
325.272	2.72411
325.708	2.69528
326.125	2.66773
326.522	2.64147
326.899	2.61654
327.255	2.59297
327.589	2.57078
327.9	2.55001
328.188	2.53069
328.453	2.51283
328.693	2.49648
328.908	2.48166
329.097	2.46841
329.259	2.45674
329.394	2.44669
