Uv/Vis Spectrum: 7,9-dihydro-3-methyl-1H-purine-2,6,8(3H)-trione
Formula: C6H6N4O3
CAS: 605-99-2
Melting point: >400
Instrument: Cary 15
Origin: INSTITUTE OF ENERGY PROBLEMS OF CHEMICAL PHYSICS, RAS
Wavelength (nm)	Logarithm epsilon
208.227	4.169
208.398	4.171
208.407	4.174
209.407	4.189
210.407	4.209
211.407	4.225
212.407	4.233
213.407	4.23
214.407	4.217
215.407	4.196
216.407	4.169
217.407	4.138
218.407	4.107
219.407	4.078
220.305	4.053
221.305	4.016
222.305	3.977
223.305	3.937
224.305	3.897
225.305	3.858
226.305	3.82
227.305	3.782
228.305	3.747
229.305	3.714
230.305	3.684
231.305	3.66
232.305	3.643
233.305	3.632
234.305	3.627
235.305	3.625
235.448	3.625
236.448	3.62
237.448	3.617
238.448	3.616
239.448	3.615
240.448	3.613
241.448	3.611
242.448	3.607
243.448	3.602
244.448	3.595
245.448	3.587
246.448	3.577
247.448	3.565
248.448	3.553
249.448	3.54
250.448	3.527
251.448	3.513
252.448	3.501
253.448	3.488
254.448	3.478
255.448	3.468
256.448	3.461
257.448	3.456
258.448	3.453
258.703	3.452
259.703	3.452
260.703	3.456
261.703	3.463
262.703	3.473
263.703	3.484
264.703	3.498
265.703	3.513
266.703	3.531
267.703	3.553
268.703	3.58
269.703	3.613
271.292	3.673
272.292	3.712
273.292	3.751
274.292	3.791
275.292	3.83
276.292	3.867
277.292	3.903
278.292	3.937
279.292	3.968
280.292	3.998
281.292	4.026
282.292	4.052
283.292	4.077
284.292	4.102
284.302	4.104
285.302	4.126
286.302	4.148
287.302	4.168
288.302	4.187
289.302	4.204
290.302	4.219
291.302	4.231
292.302	4.24
293.302	4.247
294.302	4.25
295.302	4.25
296.302	4.247
297.302	4.241
298.302	4.232
299.302	4.219
300.302	4.203
301.302	4.184
302.302	4.162
303.302	4.137
316.193	3.431
317.193	3.381
318.193	3.33
319.193	3.28
320.193	3.23
321.193	3.179
322.193	3.129
323.061	3.081
