Uv/Vis Spectrum: Dipropionamide
Formula: C6H11NO2
CAS: 6050-26-6
Melting point: 154-155
Instrument: Unicam SP 500
Origin: INSTITUTE OF ENERGY PROBLEMS OF CHEMICAL PHYSICS, RAS
Wavelength (nm)	Logarithm epsilon
191.92	3.685
192	3.685
192.07	3.687
192.15	3.69
192.23	3.692
192.31	3.692
192.39	3.694
192.71	3.711
193.11	3.73
193.51	3.752
193.91	3.771
194.31	3.788
194.72	3.805
195.13	3.824
195.54	3.844
195.95	3.857
196.36	3.876
196.77	3.895
197.19	3.908
197.61	3.925
198.03	3.938
198.45	3.951
198.87	3.968
199.3	3.979
199.72	3.991
200.15	4.002
200.58	4.013
201.01	4.024
201.45	4.032
201.88	4.045
202.32	4.054
202.76	4.06
203.2	4.066
203.65	4.071
204.09	4.075
204.54	4.077
204.99	4.081
205.44	4.084
205.89	4.084
206.35	4.079
206.81	4.075
207.27	4.071
207.73	4.064
208.19	4.056
208.66	4.045
209.12	4.034
209.59	4.021
210.07	4.004
210.54	3.989
211.02	3.97
211.49	3.951
211.97	3.925
212.46	3.899
212.94	3.869
213.43	3.837
213.92	3.799
214.41	3.764
214.9	3.722
215.4	3.681
215.9	3.632
216.4	3.585
216.9	3.535
217.41	3.48
217.92	3.428
218.43	3.388
218.94	3.33
219.45	3.276
219.97	3.223
220.49	3.169
221.01	3.113
221.54	3.06
222.07	3.011
222.6	2.957
223.13	2.916
223.66	2.876
224.2	2.835
224.74	2.797
225.28	2.762
225.83	2.728
226.38	2.694
226.93	2.662
227.48	2.632
228.04	2.606
228.6	2.578
229.16	2.548
229.72	2.525
230.29	2.497
230.86	2.473
231.43	2.445
232.01	2.422
232.58	2.392
233.17	2.364
233.75	2.334
234.34	2.31
234.93	2.276
235.52	2.246
236.12	2.21
236.72	2.178
237.32	2.148
237.92	2.118
238.53	2.088
239.14	2.064
239.76	2.043
240.37	2.021
241	2
241.62	1.979
242.25	1.957
242.88	1.936
243.51	1.921
244.15	1.91
244.79	1.901
245.43	1.891
246.08	1.884
246.73	1.88
247.39	1.878
248.04	1.872
248.7	1.872
249.37	1.869
250.04	1.869
250.71	1.869
251.39	1.869
252.06	1.869
252.75	1.869
253.43	1.869
254.12	1.869
254.82	1.867
255.52	1.863
256.22	1.863
256.92	1.861
257.63	1.863
258.35	1.861
259.06	1.854
259.78	1.852
260.51	1.85
261.24	1.844
261.97	1.839
262.71	1.833
263.45	1.827
264.2	1.82
264.95	1.814
265.7	1.807
266.46	1.801
267.23	1.79
267.99	1.779
268.77	1.771
269.54	1.76
270.32	1.749
271.11	1.739
271.9	1.726
272.69	1.709
273.49	1.696
274.3	1.677
275.11	1.664
275.92	1.645
276.74	1.627
277.56	1.608
278.39	1.591
279.22	1.57
280.06	1.546
280.9	1.522
281.75	1.503
282.61	1.471
283.46	1.448
284.33	1.418
285.2	1.385
286.07	1.351
286.95	1.313
287.84	1.281
288.73	1.248
289.62	1.206
290.53	1.156
291.43	1.109
292.35	1.054
293.27	1.009
