Uv/Vis Spectrum: 9,10-Anthracenedione, 2-hydroxy-
Formula: C14H8O3
CAS: 605-32-3
Melting point: 306
Instrument: Unicam SP 700
Origin: INSTITUTE OF ENERGY PROBLEMS OF CHEMICAL PHYSICS, RAS
Wavelength (nm)	Logarithm epsilon
208.47	4.237
209.82	4.224
211.34	4.217
212.87	4.207
214.39	4.203
215.91	4.197
217.44	4.193
218.96	4.19
220.49	4.183
221.84	4.17
223.19	4.156
224.72	4.146
226.24	4.139
227.77	4.136
229.29	4.132
230.81	4.139
232.34	4.142
233.52	4.163
234.54	4.183
235.55	4.203
236.74	4.22
237.92	4.237
239.45	4.244
240.97	4.251
242.49	4.254
244.02	4.247
245.54	4.241
246.9	4.231
248.42	4.22
249.77	4.207
251.13	4.19
252.48	4.176
253.84	4.186
255.02	4.207
256.21	4.227
257.22	4.251
258.24	4.275
259.09	4.298
260.1	4.322
261.12	4.346
262.13	4.37
263.15	4.39
264.16	4.414
265.35	4.434
266.53	4.451
267.72	4.468
269.07	4.481
270.43	4.492
271.95	4.498
273.48	4.495
275	4.485
276.52	4.478
277.88	4.464
279.23	4.451
280.59	4.437
281.94	4.427
283.3	4.417
284.48	4.4
285.5	4.376
286.51	4.353
287.36	4.325
287.87	4.298
288.54	4.271
289.05	4.241
289.56	4.21
290.07	4.18
290.58	4.149
290.91	4.119
291.25	4.088
291.59	4.058
291.93	4.027
292.44	4
292.78	3.97
293.28	3.942
293.79	3.915
294.3	3.888
294.81	3.861
295.32	3.834
295.99	3.807
296.5	3.78
297.18	3.753
298.02	3.725
298.87	3.702
299.89	3.678
300.9	3.654
302.09	3.634
303.44	3.62
304.97	3.61
306.32	3.6
307.67	3.583
309.03	3.57
310.55	3.559
312.08	3.549
313.43	3.539
314.95	3.532
316.48	3.522
318	3.515
319.53	3.509
321.05	3.502
322.57	3.495
324.1	3.488
325.62	3.488
327.14	3.492
328.67	3.495
330.19	3.495
331.72	3.498
333.24	3.495
334.76	3.488
336.29	3.478
337.64	3.464
339.16	3.454
340.52	3.441
341.87	3.427
343.23	3.417
344.75	3.407
346.28	3.397
347.8	3.393
349.32	3.393
350.85	3.39
352.37	3.386
353.89	3.386
355.42	3.39
356.94	3.393
358.47	3.397
359.82	3.407
361.34	3.407
362.87	3.414
364.39	3.424
365.91	3.427
367.44	3.431
368.96	3.434
370.49	3.441
372.01	3.441
373.53	3.444
375.06	3.444
376.58	3.444
378.1	3.448
379.63	3.444
381.15	3.444
382.67	3.444
384.2	3.441
385.72	3.431
387.25	3.427
388.77	3.42
390.29	3.41
391.65	3.4
393	3.39
394.36	3.376
395.71	3.363
397.07	3.349
398.42	3.332
399.77	3.315
401.13	3.298
402.48	3.285
403.84	3.268
405.19	3.251
406.55	3.234
407.9	3.217
409.09	3.2
410.27	3.18
411.46	3.159
412.81	3.142
414	3.122
415.01	3.102
416.03	3.081
417.21	3.061
418.23	3.041
419.24	3.017
420.26	2.997
421.11	2.973
421.95	2.949
422.63	2.922
423.48	2.895
424.15	2.868
424.66	2.841
425.34	2.814
425.85	2.787
426.35	2.759
427.03	2.732
427.54	2.705
428.22	2.678
428.72	2.651
429.4	2.624
429.91	2.597
430.59	2.57
431.09	2.542
431.94	2.515
432.62	2.488
433.3	2.461
434.14	2.434
434.82	2.407
435.5	2.38
436.34	2.353
436.85	2.326
437.53	2.298
438.21	2.271
438.88	2.244
439.56	2.217
440.41	2.19
441.08	2.163
441.93	2.136
442.61	2.109
443.28	2.081
444.13	2.058
444.81	2.031
445.65	2.003
446.33	1.976
447.01	1.949
447.86	1.922
448.53	1.895
449.02	1.869
449.72	1.844
450.4	1.817
451.24	1.793
452.09	1.77
452.77	1.742
453.78	1.722
454.8	1.698
455.81	1.678
456.83	1.654
457.84	1.631
458.69	1.604
459.54	1.58
460.38	1.553
461.4	1.529
462.25	1.505
463.26	1.481
464.45	1.461
465.46	1.437
466.48	1.414
467.49	1.393
468.34	1.37
469.36	1.346
470.2	1.322
471.05	1.298
471.9	1.275
472.74	1.248
473.59	1.22
