Uv/Vis Spectrum: 9,10-Dichloroanthracene
Formula: C14H8Cl2
CAS: 605-48-1
Melting point: 212
Instrument: n.i.g.
Origin: INSTITUTE OF ENERGY PROBLEMS OF CHEMICAL PHYSICS, RAS
Wavelength (nm)	Logarithm epsilon
234.645	3.83975
234.645	3.84869
234.903	3.92047
235.072	3.93661
235.32	3.9391
235.32	4.00247
235.32	3.99916
235.964	4.07383
237.635	4.16995
237.635	4.16641
238.866	4.24657
239.21	4.26229
239.66	4.2836
239.66	4.26682
240.656	4.33042
242.634	4.38021
243.646	4.41728
244	4.42083
244	4.42729
246.476	4.51811
246.828	4.53287
246.989	4.55773
247.215	4.56
247.343	4.56128
247.986	4.67268
247.986	4.66169
248.212	4.69722
248.458	4.71868
249.336	4.80537
249.657	4.85542
249.883	4.85769
250.108	4.87222
251.007	4.96939
251.329	5.02267
251.555	5.02494
251.682	5.03277
251.682	5.03623
252.325	5.04301
254.633	5.04815
255.155	5.06442
255.829	5.09467
256.344	5.17345
256.665	5.22673
256.771	5.22779
257.019	5.24029
257.019	5.23352
258.239	5.27603
258.562	5.27999
259.012	5.28226
260.008	5.28388
260.361	5.26709
260.683	5.24353
261.358	5.19024
261.358	5.1867
261.928	5.09533
262.097	4.81475
262.355	4.69172
262.355	4.73274
262.418	4.69109
262.516	4.69011
262.579	4.67826
262.676	4.65491
262.718	4.632
262.837	4.64652
262.924	4.65137
263.03	4.64975
263.351	4.53448
263.479	4.5332
263.705	4.51641
263.705	4.48766
264.25	4.38725
265.023	4.24002
265.023	4.2778
265.377	4.04274
265.496	4.0392
265.601	4.01692
266.02	3.94232
266.02	3.94007
266.597	3.86525
267.37	3.81511
267.691	3.77508
267.852	3.77346
268.366	3.65787
268.485	3.35123
268.527	3.33338
268.527	3.34856
268.569	3.60148
268.688	3.59104
268.751	3.34736
268.849	3.33855
268.849	3.34405
269.041	3.3802
269.041	3.41701
269.041	3.48416
270.101	3.26494
271.034	3.19648
271.034	3.20746
271.282	3.19399
272.157	3.13932
273.703	3.08583
273.703	3.0993
275.172	3.03901
275.332	3.03344
275.535	3.03246
276.21	3.00082
276.672	2.99441
279.841	2.92754
280.067	2.92526
280.389	2.87845
280.508	2.84165
281.771	2.78746
282.543	2.75479
283.057	2.74994
285.169	2.68772
285.619	2.67503
289.39	2.59432
289.744	2.59077
290.065	2.58077
290.451	2.57204
290.901	2.56429
291.415	2.55396
296.69	2.4875
298.359	2.47753
306.106	2.51553
306.942	2.52909
307.361	2.54459
307.691	2.55397
307.938	2.55751
308.453	2.57075
309.652	2.60594
310.757	2.65746
311.442	2.67633
312.117	2.6844
312.117	2.69118
314.216	2.72476
315.461	2.75156
315.621	2.75995
315.824	2.76318
315.984	2.76804
316.103	2.7748
316.457	2.77836
316.555	2.78708
316.843	2.79773
317.293	2.81
317.454	2.82517
319.447	2.91526
320.037	2.92317
321.118	2.93721
321.793	2.93883
322.693	2.9499
323.241	2.95991
324.301	3.04408
324.815	3.0825
327.227	3.15622
327.396	3.16129
327.644	3.16452
327.805	3.17614
328.457	3.18293
329.068	3.18605
329.637	3.18486
332.466	3.16968
334.814	3.29336
336.365	3.39482
336.484	3.407
336.838	3.41055
336.935	3.42734
337.265	3.4506
339.827	3.51742
340.824	3.51742
341.595	3.52314
342.39	3.52645
343.171	3.52743
343.846	3.52097
344.286	3.52097
344.616	3.51969
344.842	3.51742
345.164	3.50063
346.289	3.45992
347.34	3.43551
348.507	3.43057
350.661	3.43379
351.049	3.44233
351.85	3.46059
353.2	3.52743
353.843	3.57425
354.069	3.57652
354.294	3.58661
355.515	3.62461
355.515	3.63117
356.118	3.68078
356.584	3.70067
359.372	3.78508
362.523	3.79186
363.199	3.78734
365.663	3.75506
365.866	3.73504
366.219	3.73149
367.538	3.6457
368.107	3.63075
369.209	3.62461
370.559	3.62623
370.881	3.6285
371.083	3.63795
371.877	3.67895
371.877	3.66788
372.208	3.68694
372.489	3.69308
372.713	3.70307
372.874	3.72826
373.646	3.74602
374.032	3.75152
374.706	3.75828
375.574	3.76184
377.665	3.8575
377.825	3.8726
378.049	3.88388
378.242	3.8855
379.014	3.99141
381.351	4.076
382.903	4.076
383.225	4.04597
383.386	3.95395
383.386	3.96912
383.578	4.01271
383.692	4.00845
383.739	3.95233
383.9	3.96912
384.189	3.92005
384.295	3.95437
384.414	3.9039
384.414	3.95556
384.414	3.96751
385.423	3.79836
386.407	3.69306
386.526	3.6653
386.695	3.65013
386.922	3.64786
387.041	3.62332
387.082	3.67015
387.404	3.66788
387.523	3.57652
387.725	3.55939
388.078	3.55035
388.528	3.54132
389.59	3.53098
390.265	3.53098
390.515	3.54098
390.789	3.55303
390.908	3.56779
391.744	3.57425
391.97	3.58209
392.097	3.58619
392.097	3.60944
392.258	3.66465
392.708	3.66013
392.869	3.654
394.605	3.72148
395.248	3.75828
395.474	3.76056
395.643	3.76669
395.762	3.77669
396.276	3.7867
397.379	3.7867
398.073	3.78513
398.43	3.77346
399.587	3.76829
400.754	3.87591
401.738	4.00165
402.095	4.03757
402.288	4.03919
402.707	4.10958
402.811	4.11839
405.277	4.12959
406.113	4.11636
406.232	4.11184
406.274	4.076
406.627	3.95911
406.949	3.8855
407.482	3.76411
408.073	3.67015
408.299	3.66788
408.46	3.59943
408.579	3.59718
409.005	3.49902
409.295	3.40377
409.295	3.40806
409.819	3.30382
409.938	3.26784
410.292	3.23652
410.613	3.17969
410.861	3.1772
410.967	3.17614
411.61	3.06927
411.61	3.05926
411.858	3.04676
411.964	3.03118
412.285	2.9611
412.285	2.95884
412.533	2.92633
412.639	2.92526
412.96	2.74132
412.96	2.71798
413.859	2.59078
415.073	2.44022
415.95	2.31309
415.95	2.32988
417.277	2.35668
