Uv/Vis Spectrum: 1-Phenylnaphthalene
Formula: C16H12
CAS: 605-02-7
Melting point: 45
Boiling point: 334
Instrument: Unicam SP 500
Origin: INSTITUTE OF ENERGY PROBLEMS OF CHEMICAL PHYSICS, RAS
Wavelength (nm)	Logarithm epsilon
332.799	1.13594
332.333	1.17644
332.06	1.24012
331.598	1.27195
331.325	1.33997
330.871	1.34836
330.589	1.45484
330.132	1.48235
330.118	1.53533
329.893	1.53762
329.624	1.59926
329.165	1.64817
328.898	1.70752
328.444	1.74164
328.178	1.80303
327.728	1.83283
327.461	1.90084
327.012	1.93267
326.743	2.01138
326.299	2.03252
326.034	2.10282
325.589	2.13236
325.327	2.19834
324.885	2.22176
324.62	2.30252
324.178	2.33639
323.916	2.40873
323.471	2.45967
323.215	2.51494
322.782	2.52971
322.531	2.56792
322.097	2.59338
321.872	2.63592
321.415	2.65731
321.191	2.70188
320.733	2.73168
320.51	2.77625
320.056	2.79739
319.834	2.83993
319.38	2.86972
319.158	2.91863
318.706	2.94613
318.489	2.98001
318.039	3.00776
317.823	3.03756
317.378	3.05666
317.164	3.08213
316.722	3.09485
316.511	3.11192
316.07	3.12668
315.86	3.14578
315.422	3.15647
315.212	3.17761
314.775	3.19034
314.566	3.21377
314.132	3.22217
313.923	3.2456
313.49	3.25833
313.282	3.27972
312.851	3.29244
312.645	3.31155
312.216	3.32198
312.011	3.34108
311.583	3.35381
311.378	3.3752
310.952	3.38589
310.748	3.40499
310.324	3.41772
310.12	3.4409
309.698	3.45158
309.496	3.47069
309.076	3.47934
308.876	3.49614
308.456	3.50887
308.256	3.52593
307.84	3.53433
307.641	3.55139
307.249	3.56208
307.027	3.57915
306.638	3.58754
306.417	3.60027
306.029	3.61096
305.809	3.62369
305.423	3.63209
305.204	3.64482
304.82	3.65347
304.602	3.66391
304.219	3.6746
304.002	3.6853
303.621	3.69165
303.405	3.70439
303.025	3.71278
302.81	3.72348
302.431	3.73187
302.218	3.74053
301.841	3.74892
301.627	3.75962
301.252	3.76598
301.04	3.77642
300.666	3.78507
300.478	3.79143
300.082	3.79983
299.895	3.81052
299.501	3.81688
299.314	3.82757
298.922	3.83164
298.736	3.84029
298.345	3.84665
298.16	3.85506
297.771	3.86141
297.587	3.86982
297.199	3.87617
297.016	3.88254
296.629	3.88889
296.447	3.89526
295.881	3.9039
295.677	3.91027
295.115	3.91866
294.934	3.92502
294.553	3.92934
294.374	3.93367
294.018	3.93569
293.817	3.94002
293.462	3.94205
292.533	3.95043
291.436	3.95269
290.348	3.95673
286.604	3.95458
285.217	3.9525
283.823	3.94813
282.957	3.94377
282.116	3.94171
281.606	3.93965
281.098	3.93327
280.936	3.93326
280.43	3.92688
280.088	3.92254
279.927	3.92253
279.586	3.91615
279.086	3.90977
278.747	3.90339
278.429	3.89701
278.25	3.897
277.933	3.89062
277.754	3.89062
277.438	3.88424
277.26	3.88423
276.946	3.87556
276.769	3.87556
276.455	3.86918
276.298	3.86917
275.966	3.86279
275.809	3.86279
275.478	3.85641
275.322	3.8564
274.993	3.85002
274.837	3.85002
274.181	3.83955
273.873	3.83521
272.437	3.81606
272.114	3.81172
271.792	3.80534
271.64	3.80329
271.32	3.79462
271.169	3.79462
270.868	3.7862
270.699	3.78416
270.081	3.7691
269.932	3.76706
269.615	3.75635
269.466	3.75635
269.151	3.74589
269.002	3.74588
268.688	3.73721
268.54	3.73517
268.079	3.72242
267.913	3.72241
267.62	3.7117
267.454	3.7117
267.162	3.70328
266.997	3.70098
266.706	3.69256
266.541	3.69256
266.251	3.68414
266.106	3.68184
265.798	3.67342
265.653	3.67342
265.346	3.665
265.201	3.665
264.896	3.65632
264.752	3.65428
264.447	3.64586
264.304	3.64586
264	3.63719
263.857	3.63718
263.554	3.62876
263.411	3.62876
263.11	3.62009
262.968	3.62008
262.668	3.60963
262.526	3.60962
262.226	3.60095
262.085	3.60094
261.787	3.59253
261.646	3.59252
261.208	3.58181
261.068	3.57976
260.772	3.57338
260.632	3.57134
260.337	3.56496
260.198	3.56495
259.904	3.55628
259.765	3.55628
259.471	3.54786
259.333	3.54786
259.041	3.54148
258.748	3.53713
258.474	3.53076
258.32	3.53075
258.047	3.52437
257.62	3.51799
257.332	3.51161
257.195	3.5116
256.908	3.50522
256.62	3.50088
256.35	3.49679
255.929	3.49245
255.644	3.48811
255.225	3.48401
255.091	3.48401
254.675	3.47762
254.259	3.47532
252.068	3.47319
251.529	3.4775
251.123	3.47952
250.847	3.48384
250.442	3.4902
250.039	3.49426
249.765	3.49858
249.636	3.50494
249.235	3.50926
249.106	3.51766
248.834	3.52605
248.705	3.53471
248.434	3.54311
248.305	3.5538
248.035	3.56016
247.907	3.57085
247.637	3.57925
247.51	3.58994
247.241	3.59834
247.113	3.61107
246.846	3.61743
246.718	3.63016
246.451	3.63881
246.324	3.65562
246.058	3.66427
245.931	3.677
245.665	3.68973
245.539	3.70654
245.274	3.71519
245.148	3.72792
244.885	3.73632
244.76	3.74905
244.496	3.75974
244.371	3.77247
244.109	3.78087
243.985	3.7936
243.724	3.80225
243.6	3.81269
243.34	3.82134
243.217	3.82974
242.957	3.84043
242.834	3.85112
242.59	3.85952
242.453	3.86792
242.21	3.87657
242.073	3.88701
241.831	3.89566
241.694	3.90406
241.453	3.91042
241.317	3.92112
241.076	3.92951
240.94	3.94021
240.701	3.94657
240.565	3.95726
240.327	3.96362
240.192	3.97202
239.953	3.98041
239.819	3.98907
239.582	3.99543
239.448	4.00179
239.211	4.01248
239.077	4.02088
238.841	4.02928
238.707	4.04201
238.472	4.05066
238.354	4.0611
238.104	4.06975
237.986	4.08452
237.737	4.09317
237.619	4.10794
237.371	4.11634
237.253	4.1334
237.006	4.1418
236.888	4.15886
236.641	4.17159
236.523	4.19502
236.277	4.20775
236.159	4.22889
235.913	4.24161
235.796	4.26301
235.552	4.27573
235.435	4.29687
235.191	4.3096
235.075	4.32666
234.832	4.33735
234.716	4.35645
234.474	4.36714
234.358	4.38395
234.117	4.39464
234.001	4.41578
233.761	4.42647
233.646	4.44557
233.406	4.45396
233.292	4.47332
233.053	4.48375
232.939	4.50082
232.7	4.5115
232.587	4.52627
232.349	4.53696
232.236	4.55403
231.999	4.56242
231.886	4.57949
