Uv/Vis Spectrum: Naphthalene, 1,5-dinitro-
Formula: C10H6N2O4
CAS: 605-71-0
Melting point: 217.7
Instrument: Ziess PMQ II
Origin: INSTITUTE OF ENERGY PROBLEMS OF CHEMICAL PHYSICS, RAS
Wavelength (nm)	Logarithm epsilon
196.63	4.588
197.38	4.595
198.06	4.601
198.74	4.609
199.5	4.614
200.19	4.622
200.98	4.624
201.68	4.631
202.47	4.633
203.27	4.633
204.07	4.635
204.88	4.635
205.7	4.633
206.53	4.633
207.27	4.627
208.1	4.62
208.85	4.612
209.61	4.603
210.37	4.592
211.04	4.58
211.72	4.569
212.4	4.556
213.08	4.543
213.57	4.528
214.16	4.513
214.66	4.499
215.16	4.484
215.56	4.467
216.06	4.452
216.56	4.437
216.97	4.42
217.38	4.403
217.89	4.388
218.3	4.371
218.81	4.356
219.23	4.338
219.75	4.324
220.16	4.306
220.69	4.292
221.21	4.277
221.85	4.264
222.7	4.253
223.67	4.249
224.65	4.249
225.63	4.251
226.51	4.26
227.51	4.266
228.41	4.272
229.2	4.283
230.22	4.289
231.26	4.292
232.3	4.296
233.35	4.296
234.42	4.294
235.49	4.289
236.45	4.281
237.3	4.268
238.03	4.253
238.76	4.24
239.38	4.223
240.12	4.208
240.62	4.191
241.25	4.176
241.75	4.159
242.26	4.142
242.89	4.125
243.27	4.108
243.79	4.091
244.3	4.074
244.69	4.057
245.21	4.04
245.73	4.023
246.12	4.003
246.64	3.986
247.17	3.969
247.56	3.952
248.09	3.935
248.62	3.918
249.03	3.901
249.7	3.884
250.24	3.867
250.64	3.848
251.18	3.831
251.87	3.814
252.28	3.796
252.83	3.779
253.38	3.762
253.8	3.745
254.36	3.728
254.91	3.711
255.34	3.694
255.9	3.677
256.32	3.66
256.75	3.643
257.32	3.626
257.75	3.609
258.18	3.592
258.61	3.575
259.05	3.557
259.48	3.54
259.92	3.523
260.5	3.506
260.8	3.487
261.24	3.47
261.68	3.453
262.12	3.436
262.87	3.419
263.46	3.402
263.91	3.385
264.82	3.37
265.58	3.353
266.49	3.338
267.42	3.325
268.81	3.318
270.22	3.323
271.49	3.329
272.61	3.34
273.73	3.353
274.71	3.368
275.69	3.38
276.67	3.393
277.5	3.408
278.5	3.421
279.51	3.434
280.53	3.449
281.55	3.461
282.58	3.476
283.62	3.491
284.49	3.506
285.71	3.517
286.6	3.532
287.66	3.545
288.92	3.557
290	3.572
291.1	3.585
292.38	3.598
293.68	3.611
294.8	3.626
296.12	3.636
297.45	3.649
298.79	3.66
300.14	3.673
301.32	3.686
302.69	3.698
304.08	3.709
305.49	3.72
306.9	3.732
308.33	3.743
309.77	3.754
311.23	3.764
312.91	3.775
314.4	3.786
316.11	3.794
317.63	3.805
319.38	3.814
321.15	3.82
322.94	3.826
324.98	3.831
327.04	3.835
329.13	3.835
331.25	3.835
333.39	3.831
335.32	3.822
336.78	3.809
338.5	3.796
339.99	3.784
341.5	3.769
342.76	3.754
344.03	3.739
345.31	3.722
348.95	3.671
349.22	3.668
349.48	3.666
349.74	3.664
350.8	3.647
352.67	3.617
354.56	3.587
356.47	3.557
358.4	3.523
360.35	3.485
362.32	3.444
364.31	3.402
366.33	3.359
368.37	3.308
370.43	3.246
372.51	3.188
374.62	3.124
376.75	3.056
378.91	2.983
381.09	2.911
383.29	2.841
385.52	2.766
387.78	2.683
390.07	2.612
392.38	2.533
394.72	2.45
397.08	2.356
399.48	2.266
401.9	2.147
404.36	2.03
406.84	1.927
409.36	1.821
411.91	1.71
414.48	1.586
417.09	1.439
419.74	1.3
