Uv/Vis Spectrum: 6-chloro-1-methoxy-7H-benzocyclohepten-7-one
Formula: C12H9ClO2
CAS: 60683-65-0
Melting point: 198-199
Instrument: unknown
Origin: INSTITUTE OF ENERGY PROBLEMS OF CHEMICAL PHYSICS, RAS
Wavelength (nm)	Logarithm epsilon
205.424	4.275
206.924	4.292
208.424	4.315
209.924	4.338
211.424	4.359
212.924	4.377
214.424	4.393
215.924	4.407
215.97	4.406
217.47	4.424
218.97	4.43
220.47	4.43
221.97	4.426
223.47	4.42
224.97	4.415
226.47	4.41
227.97	4.405
229.47	4.399
230.97	4.389
231.175	4.388
232.675	4.369
234.175	4.331
235.675	4.286
237.175	4.234
238.675	4.162
240.175	4.056
240.249	4.047
241.749	3.89
243.249	3.789
244.749	3.73
246.249	3.706
247.749	3.709
249.249	3.731
250.749	3.761
252.021	3.789
253.521	3.82
255.021	3.852
256.521	3.887
258.021	3.924
259.521	3.964
261.021	4.007
262.521	4.052
264.021	4.097
265.521	4.142
267.021	4.186
268.521	4.228
270.021	4.269
271.521	4.308
273.021	4.346
274.521	4.385
276.021	4.427
276.056	4.43
277.556	4.463
279.056	4.492
280.556	4.517
282.056	4.539
283.556	4.557
285.056	4.571
286.556	4.582
288.056	4.588
289.556	4.591
291.056	4.589
292.556	4.582
294.056	4.571
295.556	4.553
297.056	4.527
298.556	4.493
298.619	4.491
300.119	4.451
301.619	4.412
303.119	4.37
304.619	4.324
306.119	4.275
307.619	4.224
309.119	4.174
310.619	4.126
312.119	4.083
313.619	4.047
315.051	4.02
316.551	4
318.051	3.981
319.551	3.963
321.051	3.945
322.551	3.928
324.051	3.911
325.551	3.895
327.051	3.878
328.551	3.861
330.051	3.844
331.551	3.828
333.051	3.811
334.551	3.795
336.051	3.779
337.551	3.763
339.051	3.748
340.551	3.733
342.051	3.719
343.551	3.706
345.051	3.693
346.551	3.681
348.051	3.67
349.551	3.66
351.051	3.65
352.551	3.641
354.051	3.633
355.551	3.624
357.051	3.616
357.969	3.61
