Uv/Vis Spectrum: Benzoic acid, 2-nitro-, methyl ester
Formula: C8H7NO4
CAS: 606-27-9
Melting point: -13
Boiling point: 275
Instrument: n.i.g.
Origin: INSTITUTE OF ENERGY PROBLEMS OF CHEMICAL PHYSICS, RAS
Wavelength (nm)	Logarithm epsilon
222.001	4.00488
222.119	4.01372
222.267	4.01122
222.422	4.00867
222.433	4.00486
222.59	4.00605
222.865	4.00484
222.865	4.00484
223.329	3.99184
223.566	3.97983
223.571	3.98477
224.047	3.97512
225.886	3.9363
226.654	3.92274
227.967	3.89032
228.082	3.89772
228.082	3.89772
228.173	3.88515
228.478	3.89564
228.601	3.89545
228.724	3.89523
228.847	3.89493
229.464	3.8811
229.464	3.8811
229.837	3.88249
229.965	3.88402
230.1	3.88546
230.248	3.88686
230.494	3.86616
231.557	3.85031
231.925	3.83258
232.463	3.83923
232.656	3.83901
232.864	3.83875
232.927	3.8243
233.078	3.8384
233.175	3.82407
233.429	3.82379
233.697	3.82343
233.697	3.82343
235.23	3.8066
236.999	3.79113
239.382	3.77682
239.382	3.77682
239.912	3.76602
240.659	3.76129
241.795	3.76216
241.797	3.76355
241.799	3.76488
241.801	3.76611
241.817	3.7757
241.887	3.77478
241.97	3.7738
242.059	3.77273
242.313	3.75837
242.313	3.75837
244.243	3.74856
246.191	3.74115
248.538	3.73456
249.064	3.7355
249.812	3.74066
250.248	3.74277
250.743	3.74368
251.492	3.72926
254.39	3.72438
257.032	3.71768
259.756	3.70566
260.897	3.68404
262.69	3.68634
262.694	3.68938
262.699	3.6924
262.703	3.6954
262.979	3.67784
264.668	3.667
266.113	3.65226
267.461	3.63438
268.861	3.61419
272.026	3.57538
272.31	3.57344
272.609	3.57132
272.914	3.56912
272.914	3.56912
274.298	3.54845
275.927	3.52862
277.276	3.50561
277.822	3.47444
278.118	3.49642
278.529	3.49635
278.953	3.49628
279.383	3.4962
279.632	3.46264
280.376	3.43867
281.624	3.41561
283.002	3.38988
284.134	3.35696
284.647	3.31067
284.916	3.34724
285.164	3.34718
285.419	3.34712
285.687	3.34705
286.152	3.2989
286.439	3.29882
286.739	3.29874
287.047	3.29865
287.047	3.29865
288.796	3.26591
290.605	3.2317
292.481	3.19532
294.431	3.15586
296.463	3.11206
296.463	3.11206
297.561	3.11868
298.505	3.11482
298.876	3.04096
299.131	3.06587
299.204	3.07239
299.29	3.07831
299.384	3.0839
299.384	3.0839
300.374	3.03416
301.92	3.00383
303.451	2.96639
303.451	2.96639
305.839	2.93205
308.388	2.88265
310.353	2.78281
310.353	2.78281
311.642	2.90162
312.007	2.88025
312.138	2.86085
312.151	2.82568
312.279	2.78022
314.215	2.776
316.162	2.77024
318.118	2.76304
320.083	2.75447
321.977	2.73415
322.054	2.74464
322.102	2.73824
322.234	2.7412
322.38	2.74359
324.032	2.7336
326.014	2.72145
328	2.70827
329.99	2.69415
331.981	2.6792
333.972	2.66355
335.963	2.64733
337.952	2.6307
339.939	2.61388
341.922	2.59707
343.901	2.58054
345.873	2.5646
355.567	2.50222
357.737	2.4837
359.952	2.45422
362.164	2.41651
364.33	2.37406
366.402	2.33192
