Uv/Vis Spectrum: 8-chloro-1-methoxy-5H-benzocyclohepten-5-one
Formula: C12H9ClO2
CAS: 60683-63-8
Melting point: 123-124
Instrument: unknown
Origin: INSTITUTE OF ENERGY PROBLEMS OF CHEMICAL PHYSICS, RAS
Wavelength (nm)	Logarithm epsilon
211.296	4.26
212.796	4.28
214.296	4.301
215.796	4.323
217.296	4.345
218.796	4.367
220.296	4.387
221.796	4.404
223.296	4.419
224.796	4.43
226.296	4.435
227.796	4.435
229.296	4.427
230.698	4.412
232.198	4.385
233.698	4.352
235.198	4.317
236.698	4.279
238.198	4.24
239.698	4.201
241.198	4.164
242.698	4.127
244.198	4.093
245.698	4.06
247.198	4.028
248.698	3.997
250.198	3.966
251.698	3.933
251.717	3.934
253.217	3.907
254.717	3.891
256.217	3.883
257.717	3.881
259.217	3.885
260.717	3.892
262.217	3.901
263.717	3.912
265.217	3.923
266.717	3.935
268.217	3.946
269.717	3.957
271.12	3.968
272.62	3.977
274.12	3.987
275.62	3.997
277.12	4.007
278.62	4.017
280.12	4.025
281.62	4.032
283.12	4.036
284.62	4.039
286.12	4.039
287.62	4.037
289.12	4.033
290.62	4.026
292.12	4.018
293.62	4.009
295.12	3.999
296.62	3.989
296.72	3.988
298.22	3.979
299.72	3.97
301.22	3.962
302.72	3.955
304.22	3.95
305.72	3.945
307.22	3.942
308.72	3.941
310.22	3.941
311.72	3.943
313.22	3.946
314.72	3.95
316.22	3.955
317.72	3.96
319.22	3.967
320.72	3.974
322.051	3.983
323.551	3.988
325.051	3.994
326.551	4.001
328.051	4.009
329.551	4.017
331.051	4.025
332.551	4.033
334.051	4.04
335.551	4.047
337.051	4.052
338.551	4.057
340.051	4.06
341.551	4.062
343.051	4.063
344.551	4.063
346.051	4.061
347.551	4.058
347.621	4.058
349.121	4.053
350.621	4.048
352.121	4.042
353.621	4.036
355.121	4.03
356.621	4.024
358.121	4.019
359.621	4.013
359.673	4.013
361.173	4.007
362.673	4.001
364.173	3.994
365.673	3.985
367.173	3.976
368.673	3.966
370.173	3.956
371.673	3.944
373.173	3.932
374.673	3.919
376.173	3.905
377.673	3.892
