Uv/Vis Spectrum: 1-mrthylpyrazolo[1,5-a]pyridin-2(1H)-one
Formula: C8H8N2O
CAS: 60637-28-7
Melting point: 165-167
Instrument: Hitachi EPS-3
Origin: INSTITUTE OF ENERGY PROBLEMS OF CHEMICAL PHYSICS, RAS
Wavelength (nm)	Logarithm epsilon
216.261	3.841
217.261	3.872
218.261	3.904
219.261	3.937
220.261	3.971
221.261	4.005
222.261	4.04
223.261	4.074
224.261	4.109
225.261	4.143
226.261	4.175
227.261	4.206
228.261	4.235
229.261	4.262
230.261	4.286
231.261	4.308
232.098	4.324
233.098	4.347
234.098	4.368
235.098	4.387
236.098	4.404
237.098	4.418
238.098	4.429
239.098	4.438
240.098	4.444
241.098	4.445
242.098	4.437
243.098	4.418
244.098	4.381
245.098	4.319
245.115	4.317
246.115	4.231
247.115	4.155
248.115	4.079
249.115	3.996
250.115	3.9
251.115	3.789
252.057	3.667
253.057	3.54
254.057	3.46
255.057	3.414
256.057	3.391
257.057	3.384
258.057	3.386
259.057	3.395
260.057	3.409
261.057	3.426
262.057	3.447
263.057	3.472
264.057	3.501
265.057	3.532
265.29	3.54
266.29	3.573
267.29	3.607
268.29	3.639
269.29	3.669
270.29	3.697
271.29	3.723
272.29	3.748
273.29	3.771
274.29	3.792
275.29	3.813
276.29	3.832
277.005	3.847
278.005	3.86
279.005	3.869
280.005	3.874
281.005	3.877
282.005	3.878
283.005	3.878
284.005	3.875
285.005	3.871
286.005	3.865
287.005	3.854
288.005	3.839
289.005	3.816
290.005	3.785
291.005	3.741
291.107	3.733
292.107	3.68
293.107	3.631
294.107	3.583
295.107	3.537
296.107	3.492
297.107	3.448
298.107	3.404
299.107	3.36
300.107	3.317
301.107	3.275
302.107	3.237
303.039	3.207
304.039	3.179
305.039	3.157
306.039	3.141
307.039	3.129
308.039	3.121
309.039	3.116
310.039	3.114
311.039	3.114
312.039	3.116
313.039	3.12
314.039	3.125
315.039	3.13
316.039	3.137
317.039	3.143
318.039	3.15
319.039	3.157
320.039	3.164
321.039	3.171
322.039	3.178
323.039	3.184
324.039	3.191
325.039	3.197
326.039	3.203
327.039	3.209
328.039	3.215
329.039	3.221
330.039	3.226
331.039	3.232
332.039	3.237
333.039	3.243
334.039	3.248
335.039	3.253
336.039	3.259
337.039	3.264
338.039	3.269
339.039	3.273
340.039	3.278
341.039	3.282
342.039	3.286
343.039	3.288
344.039	3.291
345.039	3.292
346.039	3.292
347.039	3.29
348.039	3.287
349.039	3.282
350.039	3.275
351.039	3.266
352.039	3.254
353.039	3.238
354.039	3.219
