Uv/Vis Spectrum: 8-chloro-6,7-dimethoxy-5H-benzocyclohepten-5-one
Formula: C13H11ClO3
CAS: 60683-66-1
Melting point: 83.5-85
Instrument: unknown
Origin: INSTITUTE OF ENERGY PROBLEMS OF CHEMICAL PHYSICS, RAS
Wavelength (nm)	Logarithm epsilon
210.274	3.972
211.274	3.983
212.274	3.993
213.274	4.004
214.274	4.015
215.274	4.028
216.274	4.041
217.274	4.055
218.274	4.07
219.274	4.086
220.274	4.102
221.274	4.119
222.274	4.137
223.274	4.155
224.274	4.173
225.274	4.191
226.274	4.209
227.274	4.226
228.274	4.243
229.274	4.259
230.274	4.273
231.274	4.287
232.274	4.299
233.274	4.31
234.274	4.319
235.274	4.327
236.274	4.334
237.274	4.339
238.274	4.342
239.274	4.345
240.274	4.346
241.274	4.348
242.239	4.348
243.239	4.35
244.239	4.353
245.239	4.356
246.239	4.359
247.239	4.362
248.239	4.364
249.239	4.366
250.239	4.367
251.239	4.368
252.239	4.369
253.239	4.37
254.239	4.37
255.239	4.37
256.239	4.37
257.239	4.37
258.239	4.369
259.239	4.368
260.239	4.365
261.239	4.36
262.239	4.354
262.285	4.353
263.285	4.345
264.285	4.333
265.285	4.317
266.285	4.298
267.285	4.276
268.285	4.253
269.285	4.227
270.285	4.199
271.285	4.17
272.285	4.14
273.285	4.107
274.285	4.073
275.285	4.038
276.285	4.001
277.285	3.962
278.285	3.923
279.285	3.883
280.285	3.843
281.285	3.805
282.285	3.77
283.285	3.738
283.685	3.727
284.685	3.7
285.685	3.675
286.685	3.655
287.685	3.639
288.685	3.627
289.685	3.621
290.685	3.618
291.685	3.619
292.685	3.624
293.685	3.631
294.82	3.64
296.007	3.65
297.096	3.659
298.076	3.667
298.947	3.673
299.928	3.679
301.017	3.687
301.997	3.693
302.867	3.699
303.867	3.705
304.867	3.711
305.867	3.718
306.867	3.724
307.867	3.732
308.867	3.739
309.867	3.747
310.867	3.754
311.867	3.761
312.867	3.767
313.867	3.773
314.751	3.779
315.751	3.784
316.751	3.789
317.751	3.794
318.751	3.799
319.751	3.803
320.751	3.807
321.751	3.811
322.751	3.814
323.751	3.817
324.751	3.82
325.751	3.823
326.751	3.826
327.751	3.828
328.751	3.83
329.751	3.832
330.751	3.834
331.751	3.836
332.751	3.837
333.751	3.838
334.751	3.84
335.751	3.841
336.751	3.841
337.751	3.842
338.751	3.843
339.751	3.843
340.751	3.843
341.751	3.843
342.751	3.842
343.751	3.841
344.751	3.84
345.751	3.839
346.751	3.837
347.751	3.835
348.751	3.832
349.751	3.83
350.751	3.826
351.751	3.823
352.751	3.819
353.751	3.815
354.751	3.81
355.751	3.805
356.751	3.8
357.751	3.794
358.751	3.788
359.751	3.782
360.751	3.776
361.751	3.769
362.751	3.763
363.751	3.756
364.751	3.749
365.751	3.742
366.751	3.735
367.751	3.728
368.751	3.721
369.751	3.713
370.751	3.706
371.751	3.699
372.751	3.691
373.751	3.683
374.751	3.675
375.751	3.666
376.751	3.657
377.751	3.647
