Uv/Vis Spectrum: Benzenamine, 2,6-dinitro-
Formula: C6H5N3O4
CAS: 606-22-4
Instrument: unknown
Origin: INSTITUTE OF ENERGY PROBLEMS OF CHEMICAL PHYSICS, RAS
Wavelength (nm)	Logarithm epsilon
221.52	4.366
221.86	4.365
222.21	4.364
222.55	4.364
222.9	4.363
223.24	4.358
224.28	4.353
225.32	4.346
226.35	4.336
227.39	4.32
228.42	4.303
229.46	4.288
230.5	4.257
231.53	4.218
232.57	4.165
233.61	4.126
234.64	4.072
235.68	4.037
236.71	4.008
237.75	3.993
238.79	3.978
239.82	3.97
240.86	3.963
241.89	3.958
242.93	3.96
243.97	3.965
245	3.971
246.04	3.984
247.08	3.995
248.11	4.004
249.15	4.017
250.18	4.023
251.22	4.027
252.26	4.027
253.29	4.024
254.33	4.018
255.37	4.013
256.4	4.005
257.44	3.987
258.47	3.96
259.51	3.933
260.55	3.911
261.58	3.892
262.62	3.875
263.66	3.848
264.69	3.826
265.73	3.801
266.76	3.771
267.8	3.751
268.84	3.723
269.87	3.697
270.91	3.669
271.94	3.639
272.98	3.61
274.02	3.584
275.05	3.547
276.09	3.507
277.13	3.473
278.16	3.453
279.2	3.414
280.23	3.371
281.27	3.331
282.31	3.287
283.34	3.238
284.38	3.183
285.42	3.141
286.45	3.108
287.49	3.058
288.52	3.017
289.56	2.987
290.6	2.955
290.96	2.918
292.67	2.862
293.49	2.847
294.74	2.841
295.65	2.84
296.81	2.841
297.85	2.841
298.89	2.841
299.92	2.841
301.31	2.847
303.16	2.857
304.48	2.864
305.54	2.874
307.18	2.883
309.51	2.898
311.09	2.909
311.89	2.918
313.47	2.927
314.79	2.935
316.5	2.938
317.54	2.938
318.57	2.938
319.61	2.938
320.61	2.932
321.68	2.92
322.73	2.909
323.52	2.898
324.31	2.884
325.37	2.866
326.16	2.844
327.22	2.821
328.94	2.796
329.97	2.771
331.01	2.745
332.04	2.717
333.08	2.687
333.83	2.665
335.15	2.656
336.19	2.656
337.8	2.665
338.83	2.679
339.58	2.693
340.58	2.713
341.46	2.733
342.4	2.75
343.44	2.771
344.34	2.788
345.4	2.813
346.43	2.831
347.72	2.861
348.62	2.883
349.6	2.904
350.52	2.926
351.6	2.948
352.77	2.971
353.79	2.992
354.62	3.01
355.8	3.032
356.91	3.058
358.06	3.084
358.93	3.101
359.99	3.124
361.19	3.147
362.09	3.162
363.13	3.183
364.2	3.203
365.2	3.22
366.26	3.241
367.28	3.263
368.19	3.287
369.16	3.305
370.38	3.331
371.42	3.352
372.52	3.374
373.52	3.396
374.53	3.414
375.57	3.431
376.6	3.447
377.64	3.468
378.67	3.488
379.71	3.507
380.75	3.521
381.78	3.539
382.82	3.556
383.86	3.568
384.89	3.584
385.93	3.603
386.96	3.618
388	3.635
389.04	3.652
390.07	3.669
391.11	3.685
392.14	3.7
393.18	3.715
394.22	3.732
395.25	3.751
396.29	3.766
397.33	3.779
398.36	3.794
399.4	3.806
400.43	3.817
401.47	3.831
402.51	3.842
403.54	3.852
404.58	3.863
405.62	3.873
406.65	3.883
407.69	3.892
408.72	3.9
409.76	3.909
410.8	3.917
411.83	3.922
412.87	3.929
413.91	3.936
414.94	3.943
415.98	3.947
417.01	3.952
418.05	3.957
419.09	3.96
420.12	3.962
421.16	3.965
422.19	3.966
423.23	3.966
424.27	3.965
425.3	3.965
426.34	3.963
427.38	3.962
428.41	3.958
429.45	3.955
430.48	3.952
431.52	3.947
432.56	3.941
433.59	3.935
434.63	3.926
435.67	3.917
436.7	3.902
437.74	3.889
438.77	3.877
439.81	3.861
440.85	3.842
441.88	3.826
442.92	3.803
443.95	3.776
444.99	3.743
446.03	3.715
447.06	3.688
448.1	3.656
449.14	3.628
450.17	3.603
451.21	3.564
452.24	3.534
453.28	3.493
454.32	3.458
455.35	3.42
456.39	3.378
457.43	3.331
458.46	3.287
459.2	3.251
460.53	3.202
461.57	3.162
462.61	3.108
463.64	3.058
464.68	3.002
465.76	2.945
466.75	2.883
467.79	2.796
468.82	2.717
469.86	2.621
470.55	2.536
471.93	2.324
