Uv/Vis Spectrum: 2-methyyl-1-(4-nitrophenyl)-2-propen-1-one
Formula: C10N10O3
CAS: 60644-67-9
Melting point: 81-82
Instrument: unknown
Origin: INSTITUTE OF ENERGY PROBLEMS OF CHEMICAL PHYSICS, RAS
Wavelength (nm)	Logarithm epsilon
253.252	4.077
255.252	4.098
257.252	4.11
259.252	4.114
261.252	4.111
263.252	4.102
265.252	4.085
267.252	4.064
269.252	4.037
271.252	4.005
273.252	3.969
275.252	3.929
277.252	3.886
279.252	3.84
281.252	3.791
283.252	3.741
285.252	3.688
287.252	3.635
289.252	3.58
291.252	3.525
293.252	3.469
295.252	3.414
297.252	3.358
299.252	3.304
301.252	3.25
303.252	3.197
305.252	3.146
307.252	3.096
309.252	3.047
311.252	3.001
313.252	2.957
315.252	2.915
317.252	2.875
319.252	2.838
321.252	2.803
323.252	2.771
325.252	2.742
327.252	2.715
329.252	2.692
331.252	2.671
333.252	2.653
335.252	2.638
337.252	2.626
339.252	2.617
340.823	2.615
342.823	2.612
344.823	2.605
346.823	2.596
348.823	2.584
350.823	2.571
352.823	2.556
354.823	2.539
356.823	2.52
358.823	2.499
360.823	2.475
362.823	2.449
364.823	2.419
366.823	2.386
368.823	2.35
370.823	2.309
372.823	2.264
374.823	2.215
376.823	2.162
378.823	2.104
380.823	2.043
382.823	1.978
384.823	1.909
386.823	1.837
388.823	1.763
390.823	1.685
392.823	1.606
394.823	1.525
396.823	1.443
398.823	1.359
400.823	1.274
402.823	1.188
404.823	1.101
406.823	1.012
408.823	0.92
410.823	0.825
412.823	0.725
414.823	0.619
416.823	0.504
418.29	0.418
