Uv/Vis Spectrum: 8-chloro-2-methoxy-5H-benzocyclohepten-5-one
Formula: C12H9ClO2
CAS: 60683-64-9
Melting point: 144-144.5
Instrument: unknown
Origin: INSTITUTE OF ENERGY PROBLEMS OF CHEMICAL PHYSICS, RAS
Wavelength (nm)	Logarithm epsilon
205.892	4.209
206.892	4.219
207.892	4.23
208.892	4.24
209.892	4.252
210.892	4.263
211.892	4.275
212.892	4.287
213.892	4.3
214.892	4.313
215.892	4.327
216.892	4.341
217.892	4.356
218.892	4.371
219.892	4.386
220.892	4.401
221.892	4.415
222.892	4.428
223.892	4.439
224.892	4.448
225.892	4.453
226.892	4.453
227.892	4.449
228.892	4.437
229.892	4.418
230.892	4.391
230.958	4.388
231.958	4.358
232.958	4.33
233.958	4.303
234.958	4.276
235.958	4.248
236.958	4.22
237.958	4.192
238.958	4.164
239.958	4.138
240.958	4.113
241.958	4.092
242.958	4.074
243.958	4.061
244.958	4.054
245.958	4.052
246.958	4.057
247.958	4.068
248.958	4.083
249.758	4.098
250.758	4.115
251.758	4.133
252.758	4.151
253.758	4.169
254.758	4.188
255.758	4.207
256.758	4.226
257.758	4.245
258.758	4.265
259.758	4.285
260.758	4.305
261.758	4.326
262.758	4.346
263.758	4.366
264.758	4.387
265.758	4.406
266.758	4.425
267.758	4.443
268.758	4.46
269.758	4.476
270.758	4.49
271.758	4.501
272.758	4.511
273.758	4.518
274.758	4.522
275.758	4.523
276.758	4.52
277.758	4.513
278.638	4.502
279.638	4.486
280.638	4.47
281.638	4.452
282.638	4.434
283.638	4.414
284.638	4.393
285.638	4.37
286.638	4.346
287.638	4.32
288.638	4.294
289.638	4.267
290.638	4.24
291.638	4.212
292.638	4.184
293.638	4.157
294.638	4.129
295.638	4.103
296.638	4.078
297.638	4.054
298.638	4.031
299.638	4.01
300.638	3.99
301.638	3.971
302.638	3.954
303.638	3.939
304.638	3.925
305.638	3.912
306.638	3.901
307.638	3.891
308.638	3.881
309.638	3.873
310.638	3.864
311.638	3.857
312.638	3.849
313.638	3.842
314.638	3.835
315.638	3.828
315.965	3.826
316.965	3.82
317.965	3.814
318.965	3.808
319.965	3.803
320.965	3.799
321.965	3.795
322.965	3.791
323.965	3.787
324.965	3.784
325.965	3.78
326.965	3.777
327.965	3.774
328.965	3.771
329.965	3.768
330.965	3.765
331.965	3.762
332.965	3.759
333.965	3.756
334.965	3.753
335.965	3.75
336.965	3.746
337.965	3.742
338.965	3.739
339.965	3.734
340.965	3.73
341.965	3.726
342.965	3.721
343.965	3.716
344.965	3.71
345.965	3.705
346.965	3.699
347.965	3.693
348.965	3.686
349.965	3.68
350.965	3.673
351.965	3.666
352.965	3.658
353.965	3.65
354.965	3.642
355.965	3.634
356.965	3.626
357.965	3.617
358.965	3.608
359.965	3.598
360.965	3.589
361.965	3.579
362.965	3.569
363.965	3.559
364.965	3.549
365.965	3.538
366.965	3.527
367.965	3.516
368.965	3.505
369.965	3.494
370.965	3.483
371.965	3.471
372.965	3.46
373.965	3.448
374.965	3.437
375.965	3.426
376.965	3.415
377.965	3.404
378.965	3.393
379.448	3.391
