Uv/Vis Spectrum: 1-(4-hydroxyphenyl)-2-methyl-2-propen-1-one
Formula: C10H10O2
CAS: 60644-65-7
Melting point: 79-80
Boiling point: 120-130/2 mm
Instrument: unknown
Origin: INSTITUTE OF ENERGY PROBLEMS OF CHEMICAL PHYSICS, RAS
Wavelength (nm)	Logarithm epsilon
254.61	3.316
256.61	3.377
258.61	3.428
260.61	3.473
262.61	3.514
264.61	3.551
266.61	3.586
268.61	3.619
270.61	3.649
272.61	3.676
274.61	3.699
276.61	3.718
278.61	3.731
280.61	3.738
282.61	3.74
284.61	3.734
286.61	3.722
288.61	3.704
290.61	3.679
292.61	3.648
294.61	3.611
296.61	3.568
298.61	3.519
300.61	3.463
302.61	3.4
304.359	3.336
306.359	3.255
308.359	3.171
310.359	3.088
312.359	3.01
314.359	2.939
316.359	2.875
318.359	2.818
320.359	2.766
322.359	2.72
324.359	2.676
326.359	2.636
328.359	2.597
330.359	2.56
332.359	2.524
334.359	2.489
336.359	2.455
338.359	2.422
340.359	2.391
342.359	2.361
344.158	2.327
346.116	2.296
348.158	2.258
350.158	2.206
352.158	2.153
354.158	2.101
356.158	2.05
358.158	2
360.158	1.949
362.158	1.893
364.158	1.83
366.158	1.76
368.158	1.681
370.158	1.592
372.158	1.494
374.158	1.389
376.158	1.277
378.158	1.159
380.158	1.035
382.158	0.901
