Uv/Vis Spectrum: 1-Naphthalenamine, 2-nitro-
Formula: C10H8N2O2
CAS: 607-23-8
Melting point: 144
Instrument: unknown
Origin: INSTITUTE OF ENERGY PROBLEMS OF CHEMICAL PHYSICS, RAS
Wavelength (nm)	Logarithm epsilon
239.72	4.085
240.89	4.046
242.05	3.987
243.22	3.913
244.39	3.873
245.55	3.861
246.72	3.856
247.89	3.849
249.05	3.849
250.22	3.851
251.38	3.861
252.55	3.875
253.72	3.894
256.05	3.924
257.22	3.944
258.38	3.96
259.55	3.982
260.72	4.009
261.88	4.027
263.05	4.042
264.22	4.06
265.38	4.072
266.55	4.087
267.71	4.133
268.88	4.152
270.05	4.169
271.21	4.177
272.38	4.192
273.55	4.203
274.71	4.21
275.88	4.229
277.05	4.242
278.21	4.245
279.38	4.247
280.55	4.24
281.71	4.226
282.88	4.217
284.05	4.213
285.21	4.207
286.38	4.205
287.54	4.202
288.71	4.198
289.88	4.196
291.04	4.191
292.21	4.186
293.38	4.179
294.54	4.167
295.71	4.159
296.88	4.152
298.04	4.141
299.21	4.128
300.38	4.112
301.54	4.102
302.71	4.08
303.87	4.065
305.04	4.048
306.21	4.02
307.37	4.002
308.54	3.975
309.71	3.952
310.87	3.924
312.04	3.882
313.21	3.856
314.37	3.824
315.54	3.788
316.71	3.752
317.87	3.707
319.04	3.656
320.2	3.607
321.37	3.562
322.54	3.516
323.7	3.465
324.87	3.387
326.04	3.342
329.54	3.244
331.48	3.156
333.42	3.045
336.15	2.958
339.26	2.85
342.76	2.825
345.87	2.86
349.37	2.939
352.48	3.029
355.2	3.118
358.31	3.18
361.03	3.234
363.75	3.282
366.47	3.334
368.81	3.38
371.53	3.421
373.86	3.459
375.8	3.5
378.14	3.537
380.08	3.571
382.41	3.603
384.36	3.636
386.3	3.667
387.86	3.696
389.8	3.72
392.14	3.743
394.08	3.768
396.02	3.791
397.97	3.813
400.3	3.831
402.24	3.849
404.58	3.866
406.52	3.882
408.85	3.898
411.19	3.911
413.52	3.924
416.24	3.934
419.35	3.942
422.46	3.948
425.96	3.95
429.46	3.944
432.57	3.934
435.29	3.922
437.63	3.909
439.57	3.894
441.13	3.875
443.07	3.859
445.01	3.839
446.57	3.818
448.12	3.796
449.68	3.783
451.23	3.763
453.18	3.746
454.35	3.72
455.51	3.71
457.46	3.69
458.62	3.67
459.79	3.65
461.34	3.63
463.29	3.61
464.45	3.587
466.01	3.563
467.95	3.54
470.29	3.49
472.62	3.46
475.34	3.39
478.06	3.35
480.78	3.25
