Uv/Vis Spectrum: 3,9-dihydro-6,7-dimethyl-2-oxo-N-(phenylmethyl)oxazolo[4,5-b]quinoxaline-9a(2H)-carboxamide
Formula: C19H18N4O3
CAS: 60735-47-9
Instrument: Cary 14
Origin: INSTITUTE OF ENERGY PROBLEMS OF CHEMICAL PHYSICS, RAS
Wavelength (nm)	Logarithm epsilon
282.39	3.078
283.39	3.063
284.39	3.061
285.39	3.068
286.39	3.083
287.39	3.103
288.39	3.127
289.39	3.153
290.39	3.18
291.39	3.208
292.39	3.235
293.39	3.262
294.39	3.288
295.39	3.313
296.39	3.337
297.39	3.36
298.39	3.383
299.39	3.404
300.39	3.425
301.39	3.446
302.39	3.466
303.39	3.486
304.39	3.506
305.39	3.526
306.39	3.546
307.39	3.566
308.39	3.585
309.39	3.604
310.39	3.622
311.39	3.639
312.39	3.654
313.346	3.664
314.346	3.678
315.346	3.69
316.346	3.7
317.346	3.708
318.346	3.716
319.346	3.722
320.346	3.727
321.346	3.732
322.346	3.736
323.346	3.74
324.346	3.743
325.346	3.746
326.346	3.749
327.346	3.751
328.346	3.753
329.346	3.755
330.346	3.757
331.346	3.759
332.346	3.76
333.346	3.761
334.346	3.762
335.346	3.762
336.346	3.762
337.346	3.762
338.346	3.76
339.346	3.759
340.346	3.756
341.346	3.753
342.346	3.749
343.346	3.745
344.346	3.739
345.346	3.733
346.346	3.726
347.346	3.718
348.346	3.709
349.346	3.7
349.695	3.697
350.695	3.687
351.695	3.678
352.695	3.672
353.695	3.667
354.695	3.664
355.695	3.661
356.695	3.66
357.695	3.66
358.695	3.66
359.695	3.661
360.695	3.663
361.695	3.665
362.695	3.668
363.695	3.671
364.695	3.673
365.695	3.676
366.695	3.679
367.695	3.682
368.695	3.685
369.695	3.688
370.695	3.691
371.695	3.693
372.695	3.695
373.695	3.697
374.695	3.698
375.695	3.699
376.695	3.7
377.695	3.7
378.695	3.699
379.695	3.698
380.695	3.697
381.695	3.694
382.695	3.691
383.695	3.688
384.695	3.684
385.695	3.679
386.695	3.673
387.695	3.667
388.695	3.659
389.695	3.651
390.695	3.642
391.695	3.633
392.695	3.622
393.695	3.611
394.695	3.599
395.695	3.586
396.695	3.572
397.695	3.558
398.695	3.543
399.695	3.527
400.349	3.523
401.349	3.5
402.349	3.478
403.349	3.456
404.349	3.433
405.349	3.41
406.349	3.385
407.349	3.358
408.349	3.329
409.349	3.298
410.349	3.264
411.349	3.228
412.349	3.19
413.349	3.149
414.349	3.106
415.349	3.061
416.349	3.014
417.349	2.966
418.349	2.917
419.349	2.866
420.349	2.814
421.349	2.761
422.349	2.708
423.349	2.655
424.349	2.6
425.349	2.546
426.349	2.491
427.349	2.434
428.349	2.377
429.349	2.319
430.349	2.259
431.349	2.196
431.774	2.172
