Uv/Vis Spectrum: 5,6,8,9-tetrahydro-2-methyl-7H-pyrido[3,2-c]azepin-6-one
Formula: C10H12N2O
CAS: 60796-80-7
Melting point: 174.5-176
Instrument: SF-4A
Origin: INSTITUTE OF ENERGY PROBLEMS OF CHEMICAL PHYSICS, RAS
Wavelength (nm)	Logarithm epsilon
220.909	3.963
221.709	3.962
222.509	3.962
223.309	3.964
224.109	3.965
224.909	3.965
225.709	3.963
226.509	3.959
227.309	3.954
228.109	3.946
228.909	3.935
229.709	3.923
230.509	3.909
230.65	3.907
231.45	3.893
232.25	3.876
233.05	3.855
233.85	3.832
234.65	3.805
235.45	3.775
236.25	3.743
237.05	3.708
237.85	3.672
238.65	3.634
239.45	3.595
240.25	3.554
241.05	3.513
241.85	3.471
242.65	3.428
243.45	3.386
244.25	3.344
244.917	3.305
245.717	3.274
246.517	3.248
247.317	3.224
248.117	3.204
248.917	3.191
249.717	3.186
250.517	3.193
251.317	3.213
252.117	3.249
252.788	3.28
253.49	3.322
254.29	3.36
255.09	3.401
255.89	3.443
256.69	3.485
257.49	3.527
258.29	3.568
259.09	3.608
259.89	3.647
260.69	3.683
261.49	3.716
262.29	3.746
263.09	3.774
263.89	3.798
264.69	3.819
265.49	3.837
266.29	3.851
267.09	3.862
267.89	3.87
268.69	3.874
269.49	3.876
270.29	3.874
271.09	3.87
271.89	3.863
272.69	3.853
273.49	3.841
274.29	3.828
275.09	3.812
275.89	3.794
276.69	3.775
277.49	3.755
278.29	3.733
279.09	3.71
279.89	3.686
280.69	3.661
281.49	3.634
282.29	3.607
283.09	3.579
283.89	3.549
284.69	3.518
285.49	3.485
286.29	3.45
287.09	3.413
287.89	3.373
288.69	3.329
289.49	3.282
290.29	3.231
291.09	3.174
291.89	3.112
292.69	3.042
293.228	2.988
