Uv/Vis Spectrum: Phenol, 2,6-dibromo-
Formula: C6H4Br2O
CAS: 608-33-3
Melting point: 56.5
Boiling point: 255
Instrument: Cary 14
Origin: INSTITUTE OF ENERGY PROBLEMS OF CHEMICAL PHYSICS, RAS
Wavelength (nm)	Logarithm epsilon
233.387	4.00015
233.481	3.99647
233.65	3.99191
233.744	3.9865
233.912	3.97292
234.007	3.97245
234.175	3.96105
234.26	3.96062
234.438	3.94615
234.522	3.94108
234.701	3.9326
234.785	3.92737
234.964	3.91814
235.048	3.91767
235.227	3.90926
235.311	3.90423
235.49	3.89759
235.574	3.89343
235.753	3.88503
235.837	3.88241
236.016	3.86887
236.1	3.86449
236.278	3.85891
236.363	3.85497
236.531	3.8446
236.625	3.84109
236.794	3.82559
236.888	3.82501
237.056	3.80891
237.151	3.80318
237.319	3.79479
237.404	3.79085
237.582	3.78093
237.666	3.78028
237.845	3.76794
237.929	3.76727
238.108	3.76028
238.192	3.75456
238.371	3.74666
238.455	3.74296
238.634	3.73186
238.718	3.73105
238.897	3.72112
238.981	3.7173
239.16	3.71021
239.244	3.70542
239.422	3.6998
239.506	3.69901
239.675	3.68913
239.769	3.68832
239.938	3.68074
240.032	3.67654
240.201	3.66696
240.295	3.66612
240.463	3.65728
240.548	3.65273
240.726	3.64737
240.81	3.64638
240.989	3.63622
241.073	3.63622
241.252	3.62766
241.336	3.62581
241.515	3.61799
241.599	3.61503
241.778	3.6081
241.862	3.6041
242.041	3.60105
242.125	3.59276
242.304	3.58761
242.388	3.58342
242.566	3.57906
242.651	3.5727
242.819	3.56611
242.913	3.56611
243.082	3.55942
243.176	3.55262
243.345	3.54572
243.439	3.54572
243.607	3.53644
243.702	3.5353
243.87	3.52564
243.954	3.52448
244.133	3.51592
244.217	3.51337
244.396	3.50703
244.48	3.50459
244.659	3.49687
244.743	3.49563
244.922	3.48775
245.006	3.48247
245.185	3.47696
245.269	3.47434
245.448	3.47022
245.532	3.46606
245.71	3.45626
245.795	3.45489
245.963	3.44622
246.058	3.44465
246.226	3.43738
246.32	3.43595
246.489	3.42982
246.583	3.42378
246.751	3.41616
246.846	3.41616
247.014	3.40974
247.099	3.40821
247.277	3.40031
247.361	3.40031
247.54	3.39047
247.624	3.39047
247.803	3.38041
247.887	3.37878
248.066	3.37364
248.15	3.37177
248.329	3.36126
248.497	3.35612
248.676	3.34874
248.76	3.34698
248.939	3.34145
249.023	3.33966
249.286	3.32833
249.37	3.32649
249.548	3.31858
249.633	3.31858
249.811	3.31077
249.895	3.31077
250.158	3.29865
250.337	3.2947
250.505	3.28845
250.684	3.28211
250.863	3.27775
251.126	3.26916
251.294	3.26704
251.641	3.2558
251.736	3.25362
252.083	3.24896
252.346	3.24202
252.693	3.23751
252.871	3.23524
253.134	3.23267
253.387	3.22807
253.828	3.22546
254.091	3.22313
254.88	3.21813
256.099	3.21576
256.709	3.22078
257.151	3.22546
257.498	3.23038
257.761	3.23524
258.024	3.23977
258.192	3.24202
258.371	3.24675
258.55	3.24896
258.718	3.25362
258.802	3.25362
259.159	3.26253
259.328	3.26704
259.422	3.26916
259.591	3.2736
259.675	3.27568
259.853	3.28415
259.938	3.28415
260.295	3.30085
260.379	3.30085
260.642	3.31077
260.726	3.31481
260.989	3.32256
261.073	3.32441
261.252	3.33222
261.336	3.33584
261.515	3.34145
261.599	3.34522
261.778	3.35071
261.862	3.35071
262.041	3.35784
262.125	3.36126
262.303	3.36843
262.388	3.37177
262.566	3.37693
262.651	3.38203
262.819	3.38547
262.913	3.38868
263.082	3.39364
263.176	3.39699
263.344	3.40341
263.439	3.40668
263.702	3.41616
263.87	3.4269
263.954	3.42836
264.133	3.4329
264.217	3.43881
264.396	3.44762
264.48	3.45058
264.659	3.45626
264.743	3.45762
264.922	3.4674
265.006	3.4674
265.185	3.47842
265.269	3.47842
265.447	3.48503
265.532	3.48902
265.71	3.49563
265.795	3.50075
265.973	3.50703
266.057	3.51082
266.226	3.52316
266.32	3.52316
266.488	3.53287
266.583	3.53402
266.751	3.54223
266.846	3.54697
267.014	3.55604
267.098	3.55712
267.277	3.56385
267.361	3.56942
267.54	3.57479
267.624	3.58342
267.887	3.58963
267.982	3.59076
268.15	3.60007
268.234	3.60007
268.413	3.61206
268.497	3.61799
268.676	3.62186
268.76	3.62858
268.938	3.63429
269.023	3.63531
269.201	3.64183
269.286	3.64361
269.464	3.64549
269.548	3.64825
269.727	3.65544
269.811	3.65641
269.99	3.66167
270.074	3.66348
270.242	3.67042
270.337	3.67042
270.505	3.67819
270.6	3.67911
270.863	3.68832
270.947	3.69082
271.126	3.69577
271.21	3.69823
271.378	3.70223
271.473	3.703
271.736	3.71097
271.82	3.71183
271.998	3.71964
272.083	3.7227
272.261	3.72886
272.345	3.73412
272.514	3.74075
272.608	3.74154
272.777	3.74806
272.871	3.74884
273.039	3.75533
273.134	3.76028
273.302	3.76585
273.397	3.76936
273.565	3.77275
273.649	3.77547
273.828	3.7856
273.912	3.78624
274.091	3.79283
274.175	3.79869
274.354	3.80571
274.438	3.8064
274.617	3.81644
274.701	3.81703
274.88	3.82923
274.964	3.83284
275.142	3.8352
275.227	3.83577
275.405	3.84341
275.49	3.84579
275.658	3.85154
275.752	3.85435
276.015	3.85891
276.099	3.85891
276.278	3.86228
276.362	3.86335
276.541	3.86502
276.709	3.86556
277.151	3.86502
277.761	3.86281
278.108	3.86167
278.286	3.8606
278.455	3.85945
278.634	3.85776
278.802	3.85606
279.065	3.85497
279.159	3.85264
279.159	3.85497
279.243	3.85209
279.327	3.85551
279.422	3.84981
279.506	3.84981
279.769	3.84753
280.116	3.84516
280.905	3.84516
281.336	3.84753
281.515	3.84864
281.693	3.84981
281.778	3.85435
281.778	3.85092
281.862	3.85264
282.125	3.85551
282.209	3.8566
282.387	3.85776
282.472	3.85945
282.734	3.86113
283.439	3.86502
283.87	3.86502
284.133	3.86449
284.48	3.86167
284.575	3.85999
284.743	3.85551
284.837	3.85551
285.006	3.84981
285.1	3.84808
285.269	3.84516
285.353	3.83755
285.531	3.83406
285.616	3.82442
285.794	3.81644
285.878	3.81329
286.057	3.8051
286.141	3.79869
286.32	3.79479
286.404	3.78496
286.583	3.77547
286.667	3.77481
286.846	3.76096
286.93	3.76028
