Uv/Vis Spectrum: 6-nitro-2-phenylindolizine
Formula: C14H10N2O2
CAS: 60891-76-1
Melting point: 206-208
Instrument: Cary 15
Origin: INSTITUTE OF ENERGY PROBLEMS OF CHEMICAL PHYSICS, RAS
Wavelength (nm)	Logarithm epsilon
211.155	4.146
211.608	4.152
212.608	4.166
213.608	4.179
214.608	4.19
215.608	4.201
216.608	4.21
217.608	4.219
218.608	4.228
219.608	4.237
220.608	4.246
221.608	4.255
222.608	4.264
223.608	4.273
224.608	4.282
225.608	4.292
226.608	4.301
227.608	4.309
228.608	4.318
229.608	4.326
230.608	4.334
231.608	4.341
232.608	4.347
233.608	4.353
234.608	4.358
235.608	4.362
236.608	4.364
237.608	4.366
238.608	4.366
239.608	4.366
240.608	4.364
241.608	4.36
242.608	4.356
243.608	4.35
244.608	4.343
245.608	4.334
246.608	4.324
247.608	4.313
248.608	4.301
249.608	4.288
250.608	4.274
251.608	4.258
252.608	4.242
253.608	4.225
254.608	4.208
255.608	4.19
256.608	4.171
257.608	4.153
258.608	4.134
259.608	4.115
260.608	4.097
261.608	4.078
262.608	4.061
263.608	4.043
264.608	4.027
265.608	4.012
266.608	3.997
267.304	3.993
268.304	3.975
269.304	3.963
270.304	3.954
271.304	3.949
272.304	3.946
273.304	3.944
274.304	3.945
275.304	3.946
276.304	3.949
277.304	3.952
278.304	3.956
279.304	3.962
280.304	3.968
281.304	3.975
282.304	3.983
283.304	3.993
284.304	4.005
285.304	4.019
286.304	4.035
287.304	4.054
288.304	4.076
289.361	4.101
290.361	4.126
291.361	4.153
292.795	4.227
293.795	4.285
294.795	4.347
295.795	4.409
297.417	4.508
298.417	4.568
299.417	4.626
300.417	4.68
301.417	4.732
302.417	4.779
303.417	4.823
304.417	4.861
305.417	4.895
306.417	4.924
307.417	4.948
308.417	4.968
309.417	4.983
310.417	4.993
311.417	5
312.417	5.002
313.417	5.001
314.417	4.997
315.417	4.99
316.417	4.98
317.417	4.968
318.417	4.954
319.417	4.939
320.417	4.922
321.417	4.905
322.417	4.887
323.417	4.868
324.417	4.85
325.417	4.831
326.417	4.812
327.076	4.8
328.076	4.79
329.076	4.765
330.076	4.728
331.076	4.682
332.076	4.63
333.076	4.573
334.076	4.514
335.076	4.454
336.076	4.395
337.076	4.338
338.076	4.284
339.076	4.233
340.076	4.187
341.076	4.144
342.076	4.107
343.076	4.074
344.076	4.045
345.076	4.021
346.076	4.001
347.076	3.985
348.076	3.972
349.076	3.963
350.076	3.955
351.076	3.951
352.076	3.947
353.076	3.945
354.076	3.944
355.076	3.943
356.076	3.943
357.076	3.942
358.076	3.941
359.076	3.939
360.076	3.936
361.076	3.932
362.076	3.928
363.076	3.922
364.076	3.916
365.076	3.909
366.076	3.901
367.076	3.894
368.076	3.886
369.076	3.878
370.076	3.87
371.076	3.862
372.076	3.856
373.076	3.849
373.263	3.842
374.263	3.845
375.263	3.844
376.263	3.839
377.263	3.83
378.263	3.819
379.263	3.807
380.263	3.793
381.263	3.778
382.263	3.763
383.263	3.747
384.263	3.732
385.263	3.717
386.263	3.702
387.263	3.688
388.263	3.674
389.263	3.662
390.263	3.649
391.263	3.638
392.263	3.627
393.263	3.617
394.263	3.608
395.263	3.599
396.263	3.59
397.263	3.583
398.263	3.575
399.263	3.568
400.263	3.561
401.263	3.555
402.263	3.549
403.263	3.543
404.263	3.537
405.263	3.531
406.263	3.526
407.263	3.521
408.263	3.515
409.263	3.51
410.263	3.505
411.263	3.5
412.263	3.496
413.263	3.491
414.263	3.487
415.263	3.482
416.263	3.478
417.263	3.474
418.263	3.471
419.263	3.467
420.263	3.464
421.263	3.461
422.263	3.458
423.263	3.456
424.263	3.453
425.263	3.451
426.263	3.448
427.263	3.446
428.263	3.444
429.263	3.442
430.263	3.439
431.263	3.437
432.263	3.434
433.263	3.431
434.263	3.427
435.263	3.423
436.263	3.419
437.263	3.414
438.016	3.411
439.016	3.404
440.016	3.398
441.016	3.391
442.016	3.385
443.016	3.379
444.016	3.373
445.016	3.367
446.016	3.361
447.016	3.356
448.016	3.35
449.016	3.344
450.016	3.339
451.016	3.333
452.016	3.328
453.016	3.322
454.016	3.317
455.016	3.311
456.016	3.305
457.016	3.299
458.016	3.293
459.016	3.287
460.016	3.281
461.016	3.275
462.016	3.268
463.016	3.261
464.016	3.254
465.016	3.247
466.016	3.239
467.016	3.231
468.016	3.223
469.016	3.215
470.016	3.206
471.016	3.196
472.016	3.187
473.016	3.177
474.016	3.166
475.016	3.155
476.016	3.144
477.016	3.132
478.016	3.12
479.016	3.107
480.016	3.093
481.016	3.079
482.016	3.065
483.016	3.05
484.016	3.034
485.016	3.018
486.016	3.001
487.016	2.983
488.016	2.965
489.016	2.945
490.016	2.926
491.016	2.905
492.016	2.884
493.016	2.862
494.016	2.839
495.016	2.815
496.016	2.79
497.016	2.765
498.016	2.739
499.016	2.711
499.599	2.695
