Uv/Vis Spectrum: Benzenamine, 2,6-dichloro-
Formula: C6H5Cl2N
CAS: 608-31-1
Melting point: 32-34
Instrument: Spektromom 201
Origin: INSTITUTE OF ENERGY PROBLEMS OF CHEMICAL PHYSICS, RAS
Wavelength (nm)	Logarithm epsilon
219.34	4.03
219.51	4.027
219.68	4.02
219.85	4.016
220.02	4.01
220.19	4.006
220.36	3.999
220.53	3.996
220.7	3.989
220.87	3.986
221.04	3.979
221.21	3.975
222.23	3.914
223.25	3.884
224.26	3.86
225.28	3.843
226.3	3.833
227.32	3.822
228.34	3.819
229.35	3.805
230.37	3.805
231.39	3.802
232.41	3.802
233.43	3.802
234.44	3.802
235.46	3.805
236.48	3.805
237.5	3.809
238.52	3.816
239.53	3.816
240.55	3.812
241.57	3.809
242.59	3.802
243.61	3.795
244.62	3.781
245.64	3.754
246.66	3.724
247.68	3.686
248.7	3.639
249.71	3.57
250.73	3.489
251.75	3.421
252.77	3.339
253.79	3.274
254.8	3.199
255.82	3.111
256.84	3.029
257.86	2.937
258.88	2.849
259.9	2.767
260.91	2.709
261.93	2.675
262.95	2.648
263.97	2.631
264.99	2.624
266	2.628
267.02	2.638
268.04	2.662
269.06	2.686
270.08	2.713
271.09	2.743
272.11	2.777
273.13	2.811
274.15	2.852
275.17	2.886
276.18	2.934
277.2	2.982
278.22	3.033
279.24	3.074
280.26	3.121
281.27	3.159
282.29	3.199
283.31	3.23
284.33	3.264
285.35	3.291
286.36	3.325
287.38	3.356
288.4	3.376
289.42	3.397
290.44	3.421
291.45	3.441
292.47	3.458
293.49	3.475
294.51	3.489
295.53	3.502
296.54	3.509
297.56	3.516
298.58	3.519
299.6	3.516
300.62	3.509
301.64	3.496
302.65	3.482
303.67	3.462
304.69	3.441
305.71	3.41
306.73	3.38
307.74	3.342
308.76	3.302
309.78	3.271
310.8	3.22
311.82	3.162
312.83	3.084
313.85	3.005
314.87	2.931
315.89	2.845
316.91	2.747
317.92	2.655
318.94	2.57
319.96	2.471
320.98	2.383
322	2.291
323.01	2.206
324.03	2.114
325.05	2.018
325.57	1.977
326.98	1.871
328.63	1.742
329.12	1.702
330.14	1.607
331.16	1.508
332.18	1.399
333.19	1.3
334.21	1.198
335.23	1.099
