Uv/Vis Spectrum: 2-methyl-6-nitroindolizine
Formula: C9H8N2O2
CAS: 60891-75-0
Melting point: 87-90
Instrument: Cary 15
Origin: INSTITUTE OF ENERGY PROBLEMS OF CHEMICAL PHYSICS, RAS
Wavelength (nm)	Logarithm epsilon
218.287	4.336
219.787	4.354
221.287	4.369
222.787	4.379
224.287	4.382
225.787	4.378
227.287	4.367
228.787	4.349
230.287	4.325
231.787	4.297
233.287	4.265
234.787	4.231
236.287	4.195
237.787	4.156
239.287	4.116
239.606	4.105
241.106	4.07
242.606	4.041
244.106	4.017
245.606	3.997
247.106	3.98
248.606	3.968
250.106	3.958
251.606	3.951
253.106	3.947
254.606	3.945
256.106	3.946
257.606	3.95
259.106	3.955
260.606	3.963
262.106	3.973
263.606	3.985
265.106	4
266.606	4.015
268.106	4.032
269.606	4.051
271.106	4.069
272.606	4.088
274.106	4.106
275.606	4.122
277.106	4.136
278.959	4.156
280.459	4.171
281.959	4.184
283.459	4.196
284.959	4.208
286.459	4.22
287.959	4.233
289.459	4.245
290.959	4.258
292.459	4.271
293.959	4.283
295.459	4.295
296.959	4.306
298.459	4.315
299.959	4.323
301.459	4.329
302.959	4.332
304.459	4.333
305.959	4.331
307.459	4.327
308.959	4.32
310.459	4.311
311.959	4.299
313.459	4.286
314.959	4.27
316.459	4.254
317.959	4.236
319.459	4.217
320.959	4.198
322.459	4.178
323.959	4.158
325.459	4.137
326.959	4.114
328.459	4.09
330.105	4.059
331.605	4.028
333.105	4
334.605	3.973
336.105	3.945
337.605	3.916
339.105	3.885
340.605	3.853
342.105	3.818
343.605	3.782
345.105	3.744
346.605	3.705
348.105	3.665
349.605	3.624
351.105	3.583
352.605	3.543
354.105	3.504
355.605	3.466
357.105	3.429
358.605	3.394
360.105	3.362
361.605	3.331
363.105	3.302
364.605	3.276
366.105	3.252
367.605	3.231
369.105	3.211
370.605	3.193
372.105	3.176
373.605	3.162
375.105	3.148
376.605	3.136
378.105	3.124
379.605	3.113
381.105	3.103
382.605	3.094
384.105	3.085
385.605	3.077
387.105	3.069
388.605	3.062
390.105	3.056
391.605	3.052
393.105	3.048
394.605	3.046
396.105	3.046
397.605	3.047
399.105	3.049
400.605	3.053
402.105	3.057
403.571	3.066
405.071	3.073
406.571	3.081
408.071	3.09
409.571	3.098
411.071	3.107
412.571	3.116
414.071	3.126
415.571	3.135
417.071	3.144
418.571	3.152
420.071	3.161
421.571	3.168
423.071	3.175
424.571	3.182
426.071	3.188
427.571	3.192
429.071	3.197
430.571	3.2
432.071	3.202
433.571	3.204
435.071	3.205
436.571	3.205
438.071	3.205
439.571	3.204
441.071	3.202
442.571	3.2
444.071	3.197
445.571	3.194
447.071	3.191
448.571	3.187
450.071	3.183
451.571	3.179
453.071	3.175
454.571	3.17
456.071	3.165
457.571	3.16
459.071	3.154
460.571	3.148
462.071	3.141
463.571	3.133
465.071	3.125
466.571	3.116
468.071	3.106
469.571	3.095
471.071	3.083
472.571	3.069
474.071	3.055
475.571	3.039
477.071	3.022
478.571	3.004
480.071	2.985
481.571	2.966
483.071	2.947
484.571	2.928
486.071	2.911
