Uv/Vis Spectrum: 2-methyl-8-nitroindolizine
Formula: C9H8N2O2
CAS: 60891-78-3
Melting point: 103-104
Instrument: Cary 15
Origin: INSTITUTE OF ENERGY PROBLEMS OF CHEMICAL PHYSICS, RAS
Wavelength (nm)	Logarithm epsilon
214.45	3.962
214.974	3.958
215.974	3.957
216.974	3.95
217.974	3.941
218.974	3.928
219.974	3.913
220.974	3.896
221.974	3.878
222.974	3.859
223.974	3.84
224.974	3.819
225.974	3.799
226.974	3.78
227.974	3.76
228.974	3.742
229.974	3.724
230.974	3.707
231.974	3.692
232.974	3.678
233.974	3.666
234.974	3.656
235.974	3.648
236.974	3.642
237.974	3.638
238.974	3.637
239.974	3.639
240.974	3.644
241.974	3.652
242.974	3.663
243.974	3.678
244.651	3.693
245.519	3.714
246.359	3.737
247.359	3.757
248.359	3.773
249.359	3.786
250.359	3.797
251.359	3.806
252.359	3.815
253.359	3.823
254.359	3.831
255.359	3.837
256.359	3.843
257.359	3.848
258.359	3.852
259.359	3.855
260.359	3.857
261.359	3.858
262.359	3.858
263.359	3.858
264.359	3.857
265.359	3.854
266.359	3.85
267.359	3.842
268.359	3.828
269.359	3.806
270.359	3.771
271.359	3.717
272.169	3.636
273.169	3.523
274.169	3.431
275.169	3.357
276.169	3.298
277.169	3.25
278.169	3.212
279.169	3.182
280.169	3.157
281.169	3.136
282.169	3.118
283.169	3.102
284.169	3.088
285.169	3.074
286.169	3.06
287.169	3.047
288.169	3.034
289.169	3.02
290.169	3.006
291.169	2.992
292.169	2.978
293.169	2.965
294.169	2.951
295.169	2.938
296.169	2.925
297.169	2.913
298.169	2.902
299.169	2.892
300.169	2.882
301.169	2.874
302.169	2.866
303.169	2.86
304.169	2.854
305.169	2.85
306.169	2.845
307.169	2.842
308.169	2.839
309.169	2.836
310.169	2.834
311.169	2.832
312.169	2.83
313.169	2.828
314.169	2.826
315.169	2.824
316.169	2.823
317.169	2.823
318.169	2.823
319.169	2.825
320.169	2.829
321.169	2.837
322.169	2.848
323.169	2.865
324.169	2.889
324.836	2.908
325.642	2.924
326.642	2.94
327.642	2.954
328.642	2.968
329.642	2.982
330.642	2.994
331.642	3.006
332.642	3.017
333.642	3.028
334.642	3.039
335.642	3.048
336.642	3.058
337.642	3.067
338.642	3.075
339.642	3.083
340.642	3.09
341.642	3.097
342.642	3.103
343.642	3.109
344.642	3.114
345.642	3.119
346.642	3.123
347.642	3.126
348.642	3.128
349.642	3.13
350.642	3.131
351.642	3.131
352.642	3.13
353.642	3.128
354.642	3.126
355.642	3.122
356.642	3.118
357.642	3.113
358.642	3.107
359.642	3.1
360.642	3.093
361.642	3.084
362.642	3.075
363.642	3.065
364.642	3.054
365.642	3.043
366.642	3.031
367.642	3.019
368.642	3.006
369.642	2.993
370.642	2.98
371.642	2.967
372.642	2.953
373.642	2.94
374.642	2.926
375.642	2.913
376.642	2.9
377.642	2.888
378.642	2.876
379.642	2.864
380.55	2.857
381.55	2.845
382.55	2.832
383.55	2.818
384.55	2.803
385.55	2.788
386.55	2.772
387.55	2.756
388.55	2.739
389.55	2.723
390.55	2.707
391.55	2.691
392.55	2.676
393.55	2.661
394.55	2.647
395.55	2.634
396.55	2.621
397.55	2.61
398.55	2.599
399.55	2.59
400.55	2.581
401.55	2.574
402.55	2.567
403.55	2.562
404.55	2.558
405.55	2.554
406.55	2.552
407.55	2.551
408.55	2.551
409.55	2.553
410.55	2.555
411.55	2.558
412.55	2.561
413.55	2.566
414.55	2.572
415.55	2.578
416.55	2.584
417.55	2.592
418.55	2.6
419.55	2.608
420.55	2.616
421.55	2.625
422.55	2.634
423.55	2.643
424.55	2.651
425.55	2.66
426.55	2.668
427.987	2.678
428.987	2.685
429.987	2.692
430.987	2.699
431.987	2.707
432.987	2.714
433.987	2.722
434.987	2.729
435.987	2.737
436.987	2.744
437.987	2.752
438.987	2.759
439.987	2.767
440.987	2.774
441.987	2.781
442.987	2.789
443.987	2.796
444.987	2.803
445.987	2.81
446.987	2.816
447.987	2.823
448.987	2.829
449.987	2.835
450.987	2.841
451.987	2.847
452.987	2.853
453.987	2.858
454.987	2.864
455.987	2.869
456.987	2.874
457.987	2.878
458.987	2.883
459.987	2.887
460.987	2.891
461.987	2.895
462.987	2.899
463.987	2.903
464.987	2.906
465.987	2.909
466.987	2.912
467.987	2.915
468.987	2.917
469.987	2.92
470.987	2.922
471.987	2.924
472.987	2.926
473.987	2.927
474.987	2.929
475.987	2.93
476.987	2.931
477.987	2.932
478.987	2.933
479.987	2.934
480.987	2.934
481.987	2.934
482.987	2.935
483.987	2.935
484.987	2.934
485.987	2.934
486.987	2.934
487.987	2.933
488.987	2.932
489.987	2.931
490.987	2.93
491.987	2.929
492.987	2.927
493.987	2.926
494.987	2.924
495.987	2.922
496.987	2.92
497.987	2.917
498.987	2.915
499.987	2.912
500.987	2.909
501.987	2.906
502.987	2.903
503.987	2.9
504.987	2.896
505.987	2.892
506.987	2.888
507.987	2.884
508.987	2.88
509.987	2.875
510.987	2.87
511.987	2.865
512.987	2.86
513.987	2.854
514.987	2.848
515.987	2.842
516.987	2.836
517.987	2.829
518.987	2.823
519.987	2.815
520.987	2.808
521.987	2.801
522.987	2.793
523.987	2.785
524.987	2.776
525.987	2.768
526.987	2.759
527.987	2.75
528.987	2.74
529.987	2.731
530.987	2.721
531.987	2.711
532.987	2.7
533.987	2.69
534.987	2.679
535.987	2.668
536.987	2.657
