Uv/Vis Spectrum: 3-Methyluracil
Formula: C5H6N2O2
CAS: 608-34-4
Instrument: Beckman DU
Origin: INSTITUTE OF ENERGY PROBLEMS OF CHEMICAL PHYSICS, RAS
Wavelength (nm)	Logarithm epsilon
222.43	3.621
222.57	3.619
222.71	3.616
222.86	3.615
223	3.613
223.57	3.582
224.14	3.568
224.71	3.542
225.29	3.539
225.86	3.51
226.43	3.491
227	3.472
227.57	3.468
228.14	3.455
229.29	3.425
229.86	3.409
230.43	3.404
231.57	3.386
232.14	3.373
233.29	3.365
234.43	3.368
235	3.368
236.14	3.378
236.71	3.378
237.29	3.389
238.43	3.404
239	3.418
239.57	3.439
240.14	3.451
241.29	3.466
241.86	3.483
242.43	3.497
243	3.514
243.57	3.531
244.14	3.549
245.29	3.563
245.86	3.577
246.43	3.593
247	3.607
247.57	3.628
248.14	3.638
248.71	3.65
249.29	3.659
249.86	3.674
250.43	3.682
251	3.692
251.57	3.701
252.14	3.71
252.71	3.719
253.29	3.73
253.86	3.739
254.43	3.747
255	3.757
255.57	3.757
256.14	3.765
256.71	3.772
257.29	3.774
257.86	3.781
258.43	3.786
259	3.786
259.57	3.79
260.14	3.791
260.71	3.792
261.86	3.792
263	3.79
264.14	3.786
264.71	3.781
265.29	3.781
266.43	3.768
267	3.769
267.57	3.758
268.14	3.753
268.71	3.752
269.29	3.741
269.86	3.735
270.43	3.724
271	3.719
271.57	3.706
272.14	3.696
272.71	3.687
273.29	3.677
273.86	3.677
274.43	3.665
275	3.645
275.57	3.643
276.14	3.631
276.71	3.621
277.29	3.602
277.86	3.598
278.43	3.583
279	3.565
279.57	3.549
280.14	3.542
280.71	3.537
281.29	3.516
281.86	3.503
283	3.489
283.57	3.47
284.14	3.466
284.71	3.466
285.29	3.451
286.43	3.439
287.57	3.425
288.14	3.406
289.29	3.394
289.86	3.376
290.43	3.362
291	3.343
291.57	3.323
292.14	3.311
293.29	3.266
293.86	3.259
294.43	3.234
295	3.208
295.57	3.154
296.14	3.117
296.71	3.083
297.29	3.039
297.86	2.997
298.43	2.951
299	2.857
299.57	2.848
300.14	2.727
300.71	2.69
301.29	2.59
301.86	2.52
302.43	2.481
303	2.334
304.14	2.2
304.86	2.061
305	2.061
305.29	2.003
305.57	1.936
305.71	1.936
305.86	1.857
306	1.857
306.14	1.857
306.29	1.76
306.43	1.76
306.57	1.76
306.71	1.635
306.86	1.635
307	1.158
