Uv/Vis Spectrum: Thiophene, 2-nitro-
Formula: C4H3NO2S
CAS: 609-40-5
Melting point: 41-41.5
Instrument: Beckman DB-G
Origin: INSTITUTE OF ENERGY PROBLEMS OF CHEMICAL PHYSICS, RAS
Wavelength (nm)	Logarithm epsilon
217.24	3.467
218.35	3.437
220.58	3.423
223.92	3.42
226.14	3.425
228.36	3.434
229.48	3.437
230.59	3.442
232.81	3.45
233.93	3.456
235.04	3.462
236.15	3.467
237.26	3.473
238.38	3.478
239.49	3.487
240.6	3.492
241.71	3.509
242.83	3.52
243.94	3.531
245.05	3.536
246.16	3.55
247.27	3.561
248.39	3.57
249.5	3.581
250.61	3.589
251.72	3.609
252.84	3.62
253.95	3.634
255.06	3.647
256.17	3.659
257.29	3.675
258.4	3.684
259.51	3.7
260.62	3.711
261.73	3.722
262.85	3.728
263.96	3.739
265.07	3.753
266.18	3.759
267.3	3.764
268.41	3.772
269.52	3.778
270.63	3.783
271.75	3.786
272.86	3.792
273.97	3.792
275.08	3.795
276.2	3.797
277.31	3.797
278.42	3.797
279.53	3.8
281.76	3.806
282.87	3.811
286.21	3.817
287.32	3.82
288.43	3.828
289.54	3.828
290.66	3.831
291.77	3.831
292.88	3.833
293.99	3.833
295.1	3.836
296.22	3.836
297.33	3.836
298.44	3.839
299.55	3.836
301.78	3.828
304	3.817
306.23	3.795
307.34	3.786
308.45	3.77
309.57	3.75
310.68	3.731
311.79	3.711
312.9	3.695
314.01	3.667
315.13	3.636
316.24	3.611
317.35	3.586
318.46	3.559
319.58	3.511
320.69	3.492
321.8	3.45
322.91	3.414
324.03	3.348
325.14	3.317
326.25	3.281
327.36	3.211
328.48	3.164
329.59	3.12
330.7	3.072
