Uv/Vis Spectrum: 8-nitro-2-phenylindolizine
Formula: C14H10N2O2
CAS: 60917-52-4
Melting point: 172-173
Instrument: Cary 15
Origin: INSTITUTE OF ENERGY PROBLEMS OF CHEMICAL PHYSICS, RAS
Wavelength (nm)	Logarithm epsilon
215.353	4.48
216.353	4.454
217.353	4.435
218.353	4.423
219.353	4.415
220.353	4.412
221.353	4.412
222.353	4.415
223.353	4.42
224.353	4.427
225.353	4.435
226.353	4.444
227.353	4.453
228.353	4.463
229.353	4.474
230.353	4.484
231.353	4.494
232.353	4.505
233.353	4.515
234.353	4.525
235.353	4.534
236.353	4.544
237.353	4.553
238.353	4.561
239.353	4.569
240.353	4.577
241.353	4.584
242.353	4.59
243.353	4.596
244.353	4.601
245.353	4.606
246.353	4.609
247.353	4.612
248.353	4.613
249.353	4.613
250.353	4.612
251.353	4.61
252.353	4.607
253.353	4.602
254.353	4.596
255.353	4.589
256.353	4.58
257.353	4.571
258.353	4.559
259.353	4.547
260.353	4.534
261.353	4.52
262.353	4.505
263.353	4.489
264.353	4.474
265.353	4.458
265.465	4.455
266.465	4.444
267.465	4.43
268.465	4.414
269.465	4.396
270.465	4.378
271.465	4.359
272.465	4.34
273.465	4.32
274.465	4.301
275.465	4.28
276.465	4.259
277.465	4.237
278.465	4.214
279.465	4.189
280.465	4.163
281.465	4.134
282.465	4.103
283.465	4.069
284.465	4.032
285.465	3.992
286.465	3.95
287.465	3.905
288.465	3.857
289.465	3.807
290.465	3.755
291.465	3.702
292.465	3.65
293.465	3.598
294.465	3.549
295.465	3.505
296.343	3.462
297.343	3.445
298.343	3.425
299.343	3.405
300.343	3.384
301.343	3.363
302.343	3.344
303.343	3.327
304.343	3.311
305.343	3.298
306.343	3.286
307.343	3.276
308.343	3.268
309.343	3.261
310.343	3.255
311.343	3.251
312.343	3.247
313.343	3.245
314.343	3.243
315.343	3.242
316.343	3.242
317.343	3.243
318.343	3.245
319.343	3.248
320.343	3.253
321.343	3.26
322.343	3.269
323.343	3.281
324.343	3.295
325.343	3.312
326.343	3.332
327.343	3.355
328.343	3.379
329.343	3.406
330.343	3.433
331.343	3.46
332.282	3.487
333.282	3.499
334.282	3.512
335.282	3.524
336.282	3.537
337.282	3.549
338.282	3.562
339.282	3.574
340.282	3.586
341.282	3.598
342.282	3.61
343.282	3.622
344.282	3.634
345.282	3.646
346.282	3.657
347.282	3.668
348.282	3.679
349.282	3.69
350.282	3.7
351.282	3.711
352.282	3.721
353.282	3.73
354.282	3.74
355.282	3.749
356.282	3.758
357.282	3.766
358.282	3.774
359.282	3.782
360.282	3.789
361.282	3.796
362.282	3.803
363.282	3.809
364.282	3.815
365.282	3.82
366.282	3.825
367.282	3.829
368.282	3.834
369.282	3.837
370.282	3.84
371.282	3.843
372.282	3.845
373.282	3.847
374.282	3.848
375.282	3.849
376.282	3.85
377.282	3.85
378.282	3.849
379.282	3.848
380.282	3.846
381.282	3.844
382.282	3.842
383.282	3.839
384.282	3.835
385.282	3.831
386.282	3.827
387.282	3.822
388.282	3.816
389.282	3.81
390.282	3.804
391	3.797
392	3.791
393	3.784
394	3.777
395	3.769
396	3.761
397	3.752
398	3.743
399	3.734
400	3.724
401	3.715
402	3.705
403	3.695
404	3.684
405	3.674
406	3.664
407	3.654
408	3.644
409	3.634
410	3.624
411	3.614
412	3.604
413	3.595
414	3.585
415	3.576
416	3.568
417	3.559
418	3.551
419	3.543
420	3.535
421	3.528
422	3.521
423	3.514
424	3.507
425	3.501
426	3.495
427	3.49
428	3.485
429	3.48
430	3.475
431	3.471
432	3.467
433	3.464
434	3.461
435	3.458
436	3.455
437	3.453
438	3.451
439	3.449
440	3.447
441	3.446
442	3.445
443	3.444
444	3.443
445	3.443
446	3.442
447	3.442
448	3.442
449	3.442
450	3.442
451	3.442
452	3.443
453	3.443
454	3.444
455	3.444
456	3.445
457	3.445
458	3.446
459	3.446
460	3.447
461	3.447
462	3.447
463	3.447
464	3.448
465	3.448
466	3.448
467	3.447
468	3.447
469	3.446
470	3.446
471	3.445
472	3.444
473	3.443
474	3.442
475	3.44
476	3.438
477	3.437
478	3.435
479	3.432
480	3.43
481	3.428
482	3.425
483	3.423
484	3.42
485	3.417
486	3.414
486.159	3.411
487.159	3.41
488.159	3.409
489.159	3.407
490.159	3.405
491.159	3.402
492.159	3.398
493.159	3.394
494.159	3.389
495.159	3.384
496.159	3.379
497.159	3.373
498.159	3.367
499.159	3.361
500.159	3.354
501.159	3.347
502.159	3.34
503.159	3.332
504.159	3.325
505.159	3.317
506.159	3.309
507.159	3.301
508.159	3.293
509.159	3.284
510.159	3.276
511.159	3.267
512.159	3.259
513.159	3.25
514.159	3.241
515.159	3.233
516.159	3.224
517.159	3.215
518.159	3.206
519.159	3.197
520.159	3.188
521.159	3.179
522.159	3.17
523.159	3.161
524.159	3.152
525.159	3.142
526.159	3.133
527.159	3.123
528.159	3.114
529.159	3.104
530.159	3.094
531.159	3.084
532.159	3.074
533.159	3.064
534.159	3.053
535.159	3.042
536.159	3.031
537.159	3.02
538.159	3.008
539.159	2.996
540.159	2.984
540.831	2.974
