Uv/Vis Spectrum: trans-1,2-dihydroxy-1,2-dihydrobenzo[a]anthracene
Formula: C18H14O2
CAS: 60967-88-6
Melting point: 167-168
Instrument: Cary 14
Origin: INSTITUTE OF ENERGY PROBLEMS OF CHEMICAL PHYSICS, RAS
Wavelength (nm)	Logarithm epsilon
200.61	4.448
202.11	4.457
203.61	4.457
205.11	4.455
206.61	4.454
208.11	4.452
209.61	4.446
211.11	4.434
212.61	4.413
214.11	4.385
215.61	4.353
217.11	4.322
218.61	4.298
220.11	4.287
221.61	4.29
223.11	4.304
224.465	4.311
225.965	4.33
227.465	4.341
228.965	4.337
230.465	4.323
231.654	4.316
233.154	4.316
234.654	4.323
236.154	4.327
237.654	4.322
239.154	4.316
239.496	4.315
240.996	4.311
242.496	4.313
243.996	4.324
245.496	4.342
246.996	4.368
248.496	4.4
249.996	4.436
251.496	4.476
252.996	4.52
254.496	4.571
255.702	4.617
257.464	4.676
258.964	4.717
260.464	4.768
261.964	4.815
263.464	4.825
264.658	4.802
264.964	4.759
265.965	4.658
267.465	4.591
268.965	4.547
270.465	4.517
271.965	4.498
273.465	4.486
274.965	4.485
276.465	4.497
277.965	4.532
279.166	4.577
280.666	4.662
282.166	4.67
283.666	4.637
285.17	4.605
286.572	4.601
287.591	4.624
288.839	4.672
290.146	4.725
291.146	4.764
292.107	4.784
293.08	4.769
293.741	4.743
294.721	4.695
295.568	4.62
297.068	4.539
298.568	4.422
300.068	4.222
301.568	3.89
302.043	3.803
302.891	3.669
304.391	3.573
305.891	3.437
307.391	3.283
308.891	3.131
310.391	3.004
310.407	3
311.907	2.925
313.407	2.878
314.907	2.851
316.407	2.841
317.907	2.841
319.407	2.846
320.907	2.851
322.224	2.874
323.824	2.914
325.438	2.955
326.938	2.989
328.438	3.021
329.938	3.05
331.184	3.082
332.784	3.115
334.385	3.16
336.305	3.227
338.008	3.27
339.508	3.318
341.008	3.362
342.508	3.398
344.008	3.426
345.508	3.441
347.008	3.44
348.508	3.42
350.098	3.392
351.639	3.375
353.139	3.4
354.194	3.427
355.694	3.508
357.194	3.572
358.694	3.62
359.986	3.66
361.362	3.681
362.456	3.684
363.387	3.677
364.622	3.655
366.194	3.604
367.694	3.55
368.328	3.528
369.853	3.485
371.328	3.453
372.464	3.462
373.257	3.489
374.626	3.546
375.628	3.584
377.128	3.664
378.628	3.744
379.208	3.776
379.843	3.801
380.478	3.815
381.271	3.805
382.065	3.774
382.7	3.731
383.335	3.675
384.628	3.565
386.128	3.462
387.189	3.379
388.506	3.297
390.006	3.218
391.506	3.217
393.006	3.276
394.388	3.35
395.888	3.443
397.388	3.524
398.888	3.59
400.388	3.639
401.888	3.667
403.388	3.671
404.888	3.644
