Uv/Vis Spectrum: trans-3,4-dihydroxy-3,4-dihydrobenzo[a]anthracene
Formula: C18H14O2
CAS: 60967-89-7
Melting point: 215-217
Instrument: Cary 14
Origin: INSTITUTE OF ENERGY PROBLEMS OF CHEMICAL PHYSICS, RAS
Wavelength (nm)	Logarithm epsilon
218.216	4.258
218.52	4.255
220.02	4.232
221.52	4.217
223.02	4.206
224.52	4.199
226.02	4.195
227.52	4.195
229.02	4.199
230.52	4.208
232.02	4.224
236.734	4.315
238.234	4.348
239.734	4.382
241.234	4.419
242.734	4.459
244.234	4.501
245.734	4.545
247.234	4.592
248.734	4.641
250.234	4.693
251.734	4.748
253.234	4.805
254.874	4.86
256.466	4.913
257.68	4.946
258.287	4.972
259.198	4.998
260.412	5.017
261.93	4.991
262.841	4.929
264.341	4.796
265.841	4.638
267.341	4.492
268.841	4.376
270.341	4.299
271.841	4.258
273.341	4.243
274.841	4.243
277.412	4.237
278.912	4.24
280.412	4.238
281.912	4.231
283.412	4.222
284.912	4.21
286.412	4.196
287.912	4.177
289.412	4.154
290.912	4.122
292.412	4.081
293.912	4.029
295.412	3.964
296.912	3.885
298.412	3.796
299.876	3.701
301.376	3.599
302.876	3.54
304.376	3.486
305.876	3.41
307.376	3.297
308.876	3.14
310.349	2.981
311.167	2.939
312.356	2.869
314.363	2.857
315.948	2.854
317.448	2.849
318.948	2.848
320.448	2.849
321.948	2.85
323.448	2.85
324.948	2.849
326.448	2.847
327.33	2.852
328.394	2.865
329.894	2.885
331.394	2.922
332.894	2.98
334.394	3.055
335.894	3.14
337.394	3.224
338.894	3.298
340.394	3.354
341.894	3.39
343.572	3.433
345.072	3.451
346.572	3.426
348.427	3.377
349.927	3.342
351.427	3.332
352.927	3.352
354.427	3.391
355.927	3.429
356.941	3.45
359.072	3.549
359.859	3.586
362.072	3.636
363.572	3.641
364.786	3.605
365.71	3.563
367.21	3.498
368.71	3.453
370.21	3.429
371.71	3.425
373.21	3.441
374.71	3.478
376.558	3.517
377.893	3.552
379.393	3.59
380.893	3.638
382.393	3.688
384.268	3.702
385.266	3.668
385.9	3.65
386.367	3.626
387	3.598
388.5	3.529
390	3.462
391.5	3.406
393	3.369
394.5	3.357
396	3.371
397.5	3.41
399	3.466
400.358	3.517
401.858	3.582
403.358	3.626
404.858	3.647
406.358	3.646
407.858	3.622
409.358	3.574
410.858	3.501
