Uv/Vis Spectrum: 1-Hydroxyanthracene
Formula: C14H10O
CAS: 610-50-4
Melting point: 149-150
Instrument: Unicam SP 500
Origin: INSTITUTE OF ENERGY PROBLEMS OF CHEMICAL PHYSICS, RAS
Wavelength (nm)	Logarithm epsilon
222.97	4.104
223.07	4.104
223.18	4.104
223.29	4.104
223.39	4.104
223.5	4.104
223.61	4.104
223.72	4.104
223.82	4.104
223.93	4.104
224.04	4.102
224.37	4.097
224.74	4.086
225.12	4.07
225.56	4.051
225.99	4.034
226.34	4.025
226.79	4.018
227.27	4.017
227.76	4.021
228.21	4.03
228.65	4.043
229.1	4.055
229.56	4.068
230.01	4.085
230.46	4.1
230.92	4.113
231.38	4.128
231.84	4.147
232.3	4.166
232.77	4.181
233.23	4.2
233.7	4.219
234.17	4.243
234.64	4.272
235.12	4.3
235.59	4.328
236.07	4.362
236.55	4.404
237.03	4.444
237.51	4.468
238	4.495
238.48	4.51
238.97	4.517
239.46	4.508
239.96	4.498
240.45	4.489
240.95	4.487
241.45	4.493
241.95	4.502
242.45	4.519
242.96	4.542
243.47	4.566
243.98	4.595
244.49	4.621
245	4.649
245.52	4.672
246.04	4.695
246.56	4.717
247.08	4.738
247.61	4.761
248.14	4.78
248.66	4.791
249.2	4.804
249.73	4.816
250.27	4.827
250.81	4.842
251.35	4.859
251.89	4.88
252.44	4.91
252.98	4.933
253.54	4.957
254.09	4.978
254.64	5.01
255.2	5.029
255.76	5.044
256.32	5.05
256.89	5.048
257.46	5.025
258.03	4.997
258.6	4.944
259.18	4.908
259.75	4.865
260.33	4.817
260.88	4.773
261.5	4.725
262.09	4.683
262.68	4.638
263.28	4.591
263.87	4.54
264.47	4.487
265.07	4.404
265.68	4.34
266.28	4.268
267.06	4.197
267.71	4.133
268.3	4.076
269.05	4.005
269.64	3.948
270.29	3.906
270.93	3.871
271.58	3.836
272.22	3.798
272.76	3.77
273.25	3.748
273.79	3.726
274.44	3.694
275.09	3.664
275.74	3.635
276.39	3.605
277.05	3.577
277.71	3.543
278.37	3.511
279.04	3.477
279.71	3.448
280.38	3.416
281.06	3.375
281.74	3.339
282.42	3.305
283.11	3.26
283.8	3.218
284.49	3.175
285.19	3.137
285.89	3.103
286.59	3.059
287.3	3.014
288.01	2.984
288.72	2.954
289.44	2.925
290.16	2.895
290.88	2.871
291.61	2.85
292.34	2.829
293.08	2.812
293.82	2.801
294.56	2.793
295.31	2.782
296.06	2.767
296.81	2.746
297.57	2.725
298.33	2.71
299.1	2.691
299.87	2.678
300.64	2.67
301.42	2.661
302.2	2.657
302.99	2.65
303.78	2.653
304.57	2.659
305.37	2.672
306.17	2.68
306.98	2.691
307.79	2.701
308.61	2.718
309.43	2.731
310.25	2.748
311.08	2.763
311.91	2.784
312.75	2.81
313.59	2.831
314.44	2.85
315.29	2.876
316.14	2.903
317	2.933
317.87	2.976
318.33	2.99
318.74	2.997
319.12	2.997
319.61	2.995
319.97	2.994
320.49	2.995
321.41	3
322.27	3.008
323.16	3.018
324.06	3.029
324.96	3.042
325.87	3.059
326.79	3.078
327.7	3.097
328.63	3.122
329.56	3.148
330.49	3.175
331.43	3.201
332.38	3.229
333.33	3.252
334.29	3.275
335.25	3.301
336.22	3.337
336.98	3.352
338.17	3.356
339.15	3.352
340.14	3.348
341.14	3.348
342.14	3.35
343.15	3.36
344.25	3.378
345.32	3.398
346.21	3.416
347.24	3.435
348.46	3.461
349.19	3.483
350.1	3.506
350.77	3.524
351.23	3.538
351.89	3.558
352.44	3.578
352.95	3.603
353.29	3.62
353.83	3.635
354.37	3.639
354.91	3.641
355.45	3.637
355.94	3.631
356.45	3.624
357.08	3.616
357.63	3.609
358.18	3.598
358.73	3.584
359.29	3.562
359.84	3.545
360.4	3.535
360.96	3.535
361.72	3.544
362.29	3.555
362.98	3.567
363.61	3.582
363.95	3.592
364.41	3.605
364.87	3.617
365.56	3.638
366.24	3.658
366.87	3.675
367.5	3.689
368.07	3.699
368.7	3.708
369.16	3.716
369.54	3.724
370.13	3.734
370.71	3.746
371.22	3.759
371.9	3.766
372.5	3.771
373.09	3.771
373.69	3.764
374.29	3.743
374.89	3.724
375.5	3.692
376.1	3.66
376.72	3.623
377.23	3.591
377.92	3.561
378.55	3.535
379.17	3.499
379.78	3.477
380.4	3.445
381.03	3.418
381.7	3.403
382.28	3.399
382.9	3.405
383.59	3.421
384.17	3.439
384.8	3.456
385.44	3.477
385.94	3.488
386.51	3.503
387.25	3.524
387.94	3.543
388.65	3.552
389.3	3.554
389.95	3.558
390.61	3.564
391.26	3.577
391.92	3.609
392.58	3.635
393.21	3.648
393.91	3.652
394.58	3.652
395.21	3.637
396.01	3.598
396.59	3.554
397.56	3.439
398.39	3.323
399.09	3.191
399.6	3.101
400.17	3.001
400.74	2.896
401.7	2.748
402.52	2.611
403.03	2.521
403.67	2.421
404.18	2.337
404.68	2.247
405.64	2.089
406.47	1.951
