Uv/Vis Spectrum: Acepromazine
Formula: C19H22N2OS
CAS: 61-00-7
Melting point: 136-139
Instrument: Unicam SP 800
Origin: INSTITUTE OF ENERGY PROBLEMS OF CHEMICAL PHYSICS, RAS
Wavelength (nm)	Logarithm epsilon
215.31	4.485
217.01	4.438
219.73	4.411
222.45	4.377
224.83	4.343
227.55	4.316
230.62	4.316
233	4.35
236.74	4.404
238.44	4.451
241.16	4.478
244.22	4.465
246.26	4.417
248.64	4.377
250.35	4.329
252.73	4.282
255.45	4.248
258.51	4.234
261.57	4.268
263.95	4.302
266.67	4.329
274.16	4.363
277.22	4.35
281.3	4.302
284.02	4.282
286.4	4.248
289.81	4.16
292.19	4.119
293.89	4.072
296.61	4.011
298.65	3.97
300.69	3.923
302.39	3.862
304.09	3.814
306.13	3.774
309.54	3.706
311.58	3.665
313.62	3.625
316.68	3.557
319.06	3.516
321.44	3.482
324.16	3.428
326.54	3.387
328.93	3.354
331.65	3.32
334.37	3.286
337.43	3.265
340.49	3.259
343.55	3.259
346.61	3.265
352.4	3.293
355.12	3.313
358.18	3.326
362.6	3.34
365.66	3.354
368.73	3.367
374.85	3.367
377.91	3.367
380.97	3.347
386.07	3.306
389.14	3.286
391.52	3.252
394.92	3.211
397.3	3.177
399.68	3.137
403.42	3.083
405.12	3.035
406.83	2.988
409.89	2.913
411.59	2.866
413.29	2.812
417.37	2.676
419.07	2.629
420.43	2.574
422.47	2.473
424.17	2.419
425.53	2.364
427.24	2.303
428.94	2.256
430.3	2.202
432.68	2.1
434.04	2.046
435.06	1.992
438.8	1.829
439.82	1.775
442.2	1.646
443.22	1.592
443.9	1.531
446.97	1.375
447.65	1.314
450.03	1.219
451.73	1.104
453.77	1.023
455.13	0.969
456.15	0.908
458.19	0.786
459.21	0.731
460.57	0.677
