Uv/Vis Spectrum: 1-anthracenamine
Formula: C14H11N
CAS: 610-49-1
Melting point: 130
Instrument: unknown
Origin: INSTITUTE OF ENERGY PROBLEMS OF CHEMICAL PHYSICS, RAS
Wavelength (nm)	Logarithm epsilon
273.129	4.488
274.129	4.513
275.129	4.532
276.129	4.547
277.129	4.56
278.129	4.573
279.129	4.586
280.129	4.602
281.129	4.619
282.129	4.638
283.129	4.658
284.129	4.678
285.129	4.698
286.129	4.716
287.129	4.732
288.129	4.744
289.129	4.751
290.129	4.752
291.129	4.747
292.129	4.735
293.129	4.715
294.129	4.689
295.129	4.656
295.252	4.65
296.252	4.618
297.252	4.575
298.252	4.527
299.252	4.475
300.252	4.424
301.252	4.374
302.252	4.327
303.252	4.281
304.252	4.236
305.252	4.192
306.252	4.146
307.252	4.099
308.252	4.047
309.252	3.992
310.252	3.932
311.252	3.867
312.252	3.8
313.252	3.731
314.892	3.623
315.892	3.558
316.892	3.497
317.892	3.438
318.892	3.384
319.892	3.335
320.892	3.29
321.892	3.249
322.892	3.213
323.892	3.181
324.892	3.153
325.892	3.127
326.892	3.104
327.892	3.083
328.892	3.064
329.696	3.057
330.696	3.036
331.696	3.02
332.696	3.007
333.696	2.997
334.696	2.988
335.696	2.981
336.696	2.975
337.696	2.969
338.696	2.964
339.696	2.96
340.696	2.957
341.696	2.955
342.696	2.954
343.696	2.954
344.696	2.957
345.696	2.961
346.696	2.967
347.696	2.976
348.696	2.987
349.696	3.001
350.696	3.018
351.696	3.037
352.696	3.058
353.696	3.081
354.696	3.106
355.696	3.133
356.696	3.161
357.696	3.189
358.696	3.218
359.696	3.246
360.696	3.274
361.696	3.301
362.696	3.326
363.02	3.334
364.02	3.358
365.02	3.379
366.02	3.396
367.02	3.413
368.02	3.428
369.02	3.443
370.02	3.459
371.02	3.474
372.02	3.49
373.02	3.506
374.02	3.522
375.02	3.538
376.02	3.553
377.02	3.567
378.02	3.58
379.66	3.598
380.66	3.607
381.66	3.616
382.66	3.622
383.66	3.628
384.66	3.632
385.66	3.635
386.66	3.636
387.66	3.637
388.66	3.636
389.66	3.635
390.66	3.632
391.66	3.629
392.66	3.626
393.66	3.621
394.66	3.617
395.66	3.612
396.66	3.607
397.66	3.602
398.66	3.596
399.66	3.591
400.66	3.587
401.66	3.582
402.66	3.577
403.66	3.573
404.66	3.569
405.66	3.566
406.66	3.562
407.545	3.562
408.545	3.556
409.545	3.551
410.545	3.547
411.545	3.544
412.545	3.541
413.545	3.538
414.545	3.535
415.545	3.532
416.545	3.528
417.545	3.524
418.545	3.519
419.545	3.513
420.545	3.507
421.545	3.5
422.545	3.493
423.545	3.484
424.545	3.475
425.545	3.465
426.545	3.455
427.545	3.444
428.545	3.432
429.545	3.42
430.545	3.407
431.545	3.394
432.545	3.38
433.545	3.367
434.545	3.352
435.545	3.338
436.545	3.323
437.545	3.308
438.545	3.293
439.545	3.277
440.545	3.262
441.545	3.245
442.545	3.229
443.545	3.211
444.545	3.193
445.545	3.174
446.545	3.154
447.545	3.133
448.545	3.11
449.545	3.086
450.545	3.059
451.545	3.03
