Uv/Vis Spectrum: Benzoic acid, 2,5-dimethyl-
Formula: C9H10O2
CAS: 610-72-0
Melting point: 133-133.5
Instrument: Beckman DU
Origin: INSTITUTE OF ENERGY PROBLEMS OF CHEMICAL PHYSICS, RAS
Wavelength (nm)	Logarithm epsilon
209.65	4.248
209.75	4.245
209.84	4.243
209.94	4.241
210.03	4.239
210.12	4.237
210.22	4.235
210.31	4.233
210.41	4.228
210.88	4.209
211.36	4.188
211.84	4.169
212.32	4.15
212.8	4.128
213.28	4.111
213.77	4.096
214.26	4.075
214.75	4.056
215.24	4.043
215.74	4.026
216.24	4.013
216.74	4
217.24	3.985
217.75	3.973
218.25	3.96
218.76	3.947
219.27	3.934
219.79	3.922
220.31	3.911
220.83	3.9
221.35	3.89
221.87	3.881
222.4	3.872
222.93	3.864
223.46	3.855
223.99	3.847
224.53	3.838
225.07	3.832
225.61	3.826
226.16	3.817
226.7	3.813
227.25	3.809
227.81	3.806
228.36	3.806
228.92	3.809
229.48	3.809
230.05	3.806
230.61	3.804
231.18	3.802
231.75	3.796
232.33	3.794
232.91	3.789
233.49	3.785
234.07	3.779
234.66	3.77
235.24	3.762
235.84	3.753
236.43	3.747
237.03	3.738
237.63	3.723
238.24	3.71
238.84	3.696
239.45	3.679
240.07	3.657
240.69	3.63
241.31	3.6
241.93	3.568
242.56	3.538
243.18	3.502
243.82	3.457
244.45	3.418
245.09	3.38
245.74	3.34
246.38	3.299
247.03	3.261
247.69	3.22
248.34	3.178
249	3.141
249.67	3.097
250.33	3.065
251	3.035
251.68	3.003
252.36	2.971
253.04	2.943
253.72	2.918
254.41	2.894
255.11	2.871
255.8	2.849
256.5	2.837
257.21	2.82
257.92	2.805
258.63	2.792
259.34	2.785
260.06	2.781
260.79	2.777
261.52	2.775
262.25	2.775
262.99	2.779
263.73	2.785
264.47	2.794
265.22	2.809
265.97	2.824
266.73	2.839
267.59	2.857
268.35	2.877
269.13	2.896
269.91	2.916
270.58	2.933
271.36	2.949
272.22	2.965
272.95	2.977
273.75	2.99
274.55	3.007
275.36	3.022
276.17	3.039
276.98	3.056
277.81	3.071
278.63	3.084
279.46	3.099
280.3	3.114
281.14	3.126
281.99	3.141
282.84	3.152
283.7	3.165
284.56	3.171
285.42	3.173
286.3	3.169
287.17	3.163
288.06	3.154
288.95	3.144
289.84	3.131
290.74	3.116
291.65	3.101
292.56	3.077
293.47	3.05
294.39	3.016
295.32	2.975
296.26	2.933
297.2	2.881
298.11	2.829
298.74	2.793
299.22	2.761
299.88	2.721
300.33	2.693
300.66	2.671
301.35	2.616
301.75	2.579
302.18	2.525
302.57	2.476
302.96	2.419
303.36	2.353
303.66	2.282
304.15	2.184
304.54	2.12
304.94	2.052
305.34	1.986
305.73	1.918
306.13	1.856
306.53	1.792
306.94	1.73
307.34	1.658
307.74	1.551
308.15	1.49
308.55	1.417
308.96	1.351
