Uv/Vis Spectrum: 1,1'-Biphenyl, 2,4'-dimethyl-
Formula: C14H14
CAS: 611-61-0
Boiling point: 277.2
Instrument: unknown
Origin: INSTITUTE OF ENERGY PROBLEMS OF CHEMICAL PHYSICS, RAS
Wavelength (nm)	Logarithm epsilon
220.34	4.089
220.42	4.079
220.51	4.07
220.59	4.06
220.68	4.051
220.76	4.041
220.93	4.033
221.02	4.023
221.1	4.014
221.23	4.004
221.35	3.995
221.48	3.985
221.57	3.975
221.69	3.967
221.82	3.958
221.95	3.95
222.07	3.941
222.2	3.932
222.33	3.922
222.45	3.914
222.58	3.905
222.71	3.897
222.84	3.887
223	3.879
223.13	3.87
223.26	3.862
223.39	3.853
223.51	3.845
223.72	3.836
223.85	3.828
224.02	3.819
224.19	3.811
224.36	3.802
224.53	3.794
224.7	3.785
224.91	3.777
225.12	3.768
225.37	3.761
225.59	3.754
225.88	3.747
226.14	3.741
226.43	3.736
226.77	3.731
227.15	3.732
227.53	3.736
227.87	3.739
228.21	3.743
228.51	3.748
228.84	3.754
229.14	3.759
229.44	3.764
229.69	3.771
229.94	3.777
230.2	3.783
230.45	3.79
230.71	3.796
230.96	3.804
231.21	3.81
231.47	3.817
231.72	3.825
231.97	3.831
232.19	3.84
232.44	3.846
232.69	3.853
232.91	3.861
233.16	3.868
233.41	3.876
233.67	3.883
233.88	3.891
234.13	3.898
234.34	3.905
234.56	3.913
234.77	3.921
235.02	3.929
235.23	3.936
235.49	3.944
235.7	3.951
235.95	3.958
236.16	3.966
236.38	3.974
236.59	3.982
236.84	3.989
237.05	3.997
237.26	4.004
237.48	4.012
237.73	4.019
237.94	4.026
238.2	4.033
238.41	4.041
238.66	4.048
238.91	4.055
239.17	4.062
239.42	4.069
239.68	4.076
239.93	4.084
240.18	4.091
240.44	4.099
240.69	4.106
240.95	4.113
241.24	4.12
241.54	4.126
241.79	4.133
242.09	4.139
242.38	4.144
242.64	4.151
242.93	4.156
243.23	4.161
243.53	4.166
243.78	4.174
244.08	4.179
244.42	4.185
244.71	4.19
245.05	4.194
245.3	4.2
245.64	4.205
245.98	4.21
246.32	4.214
246.66	4.219
247	4.223
247.33	4.227
247.67	4.231
248.01	4.237
248.39	4.239
248.73	4.243
249.07	4.246
249.45	4.248
249.83	4.251
250.21	4.254
250.59	4.256
250.97	4.259
251.35	4.259
251.74	4.26
252.12	4.262
252.5	4.263
252.88	4.263
253.26	4.264
253.64	4.262
254.02	4.261
254.4	4.26
254.78	4.258
255.16	4.256
255.54	4.255
255.92	4.252
256.31	4.25
256.69	4.247
257.07	4.245
257.41	4.242
257.79	4.239
258.17	4.235
258.55	4.232
258.89	4.227
259.23	4.223
259.56	4.219
259.9	4.213
260.24	4.208
260.58	4.203
260.92	4.197
261.26	4.193
261.55	4.188
261.85	4.182
262.14	4.177
262.48	4.172
262.74	4.165
263.03	4.159
263.33	4.153
263.63	4.147
263.88	4.141
264.13	4.135
264.43	4.128
264.73	4.122
264.94	4.114
265.23	4.109
265.49	4.103
265.74	4.095
266	4.089
266.25	4.083
266.5	4.075
266.8	4.069
267.01	4.061
267.26	4.055
267.52	4.049
267.77	4.042
267.98	4.035
268.24	4.029
268.49	4.021
268.75	4.014
269	4.006
269.25	4
269.51	3.992
269.76	3.985
270.06	3.979
270.27	3.971
270.52	3.965
270.78	3.957
271.03	3.95
271.28	3.944
271.54	3.936
271.79	3.93
272	3.922
272.26	3.916
272.51	3.909
272.77	3.901
273.02	3.894
273.27	3.886
273.49	3.879
273.74	3.871
273.99	3.864
274.25	3.857
274.5	3.849
274.8	3.843
275.01	3.835
275.26	3.828
275.47	3.82
275.73	3.813
275.98	3.806
276.24	3.798
276.45	3.791
276.66	3.783
276.95	3.777
277.21	3.77
277.46	3.762
277.67	3.755
277.93	3.748
278.14	3.741
278.39	3.733
278.61	3.726
278.86	3.719
279.11	3.712
279.32	3.705
279.58	3.697
