Uv/Vis Spectrum: Acridine, 9-methyl-
Formula: C14H11N
CAS: 611-64-3
Melting point: 117-118
Instrument: n.i.g.
Origin: INSTITUTE OF ENERGY PROBLEMS OF CHEMICAL PHYSICS, RAS
Wavelength (nm)	Logarithm epsilon
220.92	4.184
221.57	4.19
222.22	4.197
222.88	4.203
223.53	4.21
224.18	4.216
224.84	4.223
225.49	4.229
226.14	4.236
226.8	4.242
227.45	4.249
228.1	4.255
228.76	4.255
230.07	4.281
231.37	4.307
232.68	4.339
233.99	4.378
235.29	4.424
236.6	4.469
237.91	4.508
239.22	4.566
240.52	4.657
241.83	4.774
243.14	4.943
244.44	5.248
245.12	5.328
245.8	5.388
246.72	5.426
247.56	5.437
248.37	5.423
249.01	5.371
249.67	5.286
250.35	5.178
251	5.048
251.79	4.892
252.84	4.664
253.67	4.516
254.9	4.326
255.98	4.145
257.52	3.944
258.91	3.765
260.13	3.632
261.44	3.503
262.75	3.438
264.05	3.379
265.36	3.334
266.67	3.289
267.97	3.25
269.28	3.224
270.59	3.191
271.9	3.159
273.2	3.126
274.51	3.114
275.82	3.088
277.12	3.075
278.43	3.055
279.74	3.029
281.05	3.003
282.35	2.99
283.66	2.971
284.97	2.958
286.27	2.945
287.58	2.932
288.89	2.932
290.2	2.938
291.5	2.945
292.81	2.958
294.12	2.964
295.42	2.971
296.73	2.99
298.04	3.003
299.35	3.023
300.65	3.055
301.96	3.068
303.27	3.088
304.58	3.126
305.88	3.152
307.19	3.185
308.5	3.204
309.8	3.23
311.11	3.263
312.42	3.295
313.73	3.321
315.03	3.354
316.34	3.392
317.65	3.425
318.95	3.464
320.26	3.503
321.57	3.542
322.88	3.568
324.18	3.6
325.49	3.626
326.8	3.645
328.1	3.678
329.41	3.704
330.72	3.73
332.03	3.788
333.33	3.801
334.64	3.834
335.95	3.879
337.25	3.911
338.56	3.918
339.87	3.918
341.18	3.898
342.48	3.905
343.79	3.918
345.1	3.931
346.41	3.963
347.71	4.009
349.02	4.041
350.33	4.048
351.63	4.041
352.94	4.002
354.25	3.957
355.56	3.944
356.86	3.924
358.17	3.918
359.48	3.918
360.78	3.898
362.09	3.885
363.4	3.859
364.71	3.834
366.01	3.795
367.32	3.762
368.63	3.743
369.93	3.73
371.24	3.71
372.55	3.697
373.86	3.684
375.16	3.671
376.47	3.652
377.78	3.645
379.08	3.639
380.39	3.619
381.7	3.6
383.01	3.581
384.31	3.548
385.62	3.516
386.9	3.475
388.24	3.36
388.72	3.195
389.54	3.042
390.85	2.977
392.16	2.912
392.86	2.803
393.46	2.627
394.09	2.48
394.77	2.381
395.33	2.284
396.13	2.193
397.39	2.115
398.69	2.05
400	2.011
401.31	1.946
402.08	1.836
402.61	1.622
403.1	1.52
403.92	1.434
405.23	1.408
406.54	1.382
407.84	1.336
409.2	1.24
410.46	1.116
411.76	1.012
