Uv/Vis Spectrum: Benzene, 1-ethyl-2-methyl-
Formula: C9H12
CAS: 611-14-3
Boiling point: 165.2
Instrument: unknown
Origin: INSTITUTE OF ENERGY PROBLEMS OF CHEMICAL PHYSICS, RAS
Wavelength (nm)	Logarithm epsilon
225	2.354
225.17	2.315
225.39	2.273
225.6	2.234
225.81	2.187
226.02	2.145
226.23	2.093
226.45	2.045
226.66	2.002
226.87	1.963
227.08	1.917
227.29	1.883
227.51	1.833
227.97	1.742
228.1	1.715
228.27	1.686
228.43	1.656
228.61	1.626
228.86	1.595
229.07	1.562
229.37	1.531
229.63	1.497
229.92	1.461
230.22	1.432
230.6	1.401
230.87	1.382
231.36	1.364
231.75	1.356
232.13	1.356
232.51	1.356
232.93	1.364
233.27	1.374
233.65	1.387
234.04	1.401
234.42	1.415
234.77	1.432
235.12	1.448
235.48	1.468
235.82	1.486
236.09	1.497
236.52	1.518
236.88	1.536
237.22	1.552
237.57	1.57
237.94	1.586
238.28	1.602
238.61	1.622
238.95	1.639
239.29	1.655
239.63	1.674
239.97	1.686
240.27	1.704
240.61	1.718
240.9	1.735
241.2	1.751
241.54	1.767
241.84	1.782
242.18	1.797
242.52	1.808
242.81	1.822
243.11	1.838
243.43	1.853
243.7	1.866
244	1.878
244.3	1.892
244.59	1.906
244.89	1.919
245.19	1.93
245.48	1.943
245.74	1.955
246.04	1.967
246.33	1.978
246.6	1.99
246.88	2.001
247.18	2.013
247.43	2.023
247.69	2.034
247.98	2.045
248.24	2.053
248.49	2.063
248.78	2.073
249.05	2.081
249.3	2.09
249.6	2.099
249.85	2.109
250.15	2.117
250.4	2.125
250.61	2.135
250.87	2.143
251.12	2.152
251.38	2.159
251.63	2.167
251.84	2.176
252.14	2.184
252.4	2.192
252.65	2.2
252.86	2.208
253.12	2.214
253.33	2.222
253.58	2.229
253.8	2.237
254.01	2.244
254.3	2.25
254.52	2.257
254.73	2.264
254.98	2.271
255.19	2.279
255.45	2.286
255.7	2.292
255.96	2.298
256.25	2.302
256.59	2.305
256.89	2.309
257.23	2.313
257.61	2.315
257.95	2.318
258.25	2.322
258.59	2.327
258.88	2.332
259.14	2.337
259.43	2.342
259.73	2.347
260.07	2.351
260.41	2.354
260.75	2.357
261	2.362
261.26	2.367
261.47	2.373
261.6	2.38
261.72	2.387
261.89	2.393
262.02	2.399
262.23	2.404
262.49	2.409
262.78	2.412
263.17	2.413
263.46	2.409
263.72	2.404
263.93	2.399
264.14	2.393
264.31	2.387
264.52	2.382
264.69	2.376
264.86	2.37
264.99	2.363
265.16	2.357
265.3	2.351
265.5	2.344
265.67	2.337
265.84	2.332
266.05	2.325
266.3	2.319
266.56	2.314
266.81	2.308
267.02	2.301
267.28	2.295
267.53	2.289
267.75	2.282
267.91	2.274
268.08	2.266
268.23	2.259
268.35	2.252
268.51	2.243
268.62	2.239
268.75	2.233
268.89	2.227
269.06	2.221
269.23	2.22
269.4	2.223
269.56	2.229
269.76	2.236
269.93	2.243
270.08	2.25
270.23	2.261
270.41	2.272
270.59	2.282
270.76	2.291
270.93	2.299
271.1	2.302
271.27	2.3
271.43	2.297
271.61	2.291
271.79	2.282
271.94	2.267
272.11	2.244
272.28	2.214
272.45	2.182
272.62	2.153
272.79	2.12
272.96	2.083
273.13	2.042
273.3	2.006
273.47	1.969
273.64	1.93
273.81	1.892
273.98	1.849
274.15	1.803
274.32	1.764
274.49	1.718
274.66	1.682
274.83	1.643
275	1.613
275.17	1.571
275.55	1.503
275.84	1.468
276.1	1.429
276.35	1.387
276.61	1.331
276.9	1.287
277.2	1.238
277.5	1.17
277.8	1.089
278.13	1.009
