Uv/Vis Spectrum: 1-Benzylnaphthalene
Formula: C17H14
CAS: 611-45-0
Melting point: 59.5
Boiling point: 350
Instrument: n.i.g.
Origin: INSTITUTE OF ENERGY PROBLEMS OF CHEMICAL PHYSICS, RAS
Wavelength (nm)	Logarithm epsilon
238.127	3.36396
238.474	3.35028
238.852	3.33675
239.255	3.32332
239.675	3.30997
240.108	3.29664
240.546	3.28332
240.985	3.26994
241.418	3.2565
241.838	3.24293
242.24	3.2292
242.617	3.21528
242.963	3.20113
242.963	3.20113
243.506	3.1963
243.877	3.19109
244.149	3.18243
244.149	3.18243
244.334	3.18206
244.518	3.18157
244.702	3.18102
244.702	3.18102
244.721	3.17565
244.746	3.17016
244.782	3.16461
244.782	3.16461
245.132	3.16395
245.494	3.16317
245.854	3.15783
245.857	3.15941
245.859	3.16093
245.861	3.16233
245.861	3.16233
246.204	3.16228
246.988	3.17434
247.639	3.18736
247.792	3.2004
247.792	3.2004
248.501	3.20639
249.17	3.21946
249.799	3.23635
250.384	3.25377
250.924	3.26845
251.417	3.27712
251.417	3.27712
251.506	3.28372
252.897	3.32966
253.513	3.3489
255.966	3.44072
256.362	3.45606
256.719	3.47134
257.018	3.48648
257.241	3.5014
257.241	3.5014
257.381	3.50138
257.533	3.50136
257.69	3.50134
257.69	3.50134
258.019	3.51791
258.352	3.53422
258.662	3.55031
258.925	3.56623
259.116	3.58204
262.865	3.64343
262.901	3.64494
262.948	3.64633
263.188	3.64841
263.188	3.64841
263.638	3.66538
264.45	3.68129
266.894	3.73412
267.356	3.74834
267.851	3.76279
268.389	3.77718
268.982	3.79122
269.641	3.80462
270.377	3.81709
271.203	3.82835
272.128	3.8381
272.128	3.8381
272.865	3.83443
273.389	3.82992
273.766	3.82119
273.766	3.82119
277.266	3.83511
277.622	3.84425
277.77	3.85154
277.77	3.85154
277.902	3.85152
278.041	3.8515
278.192	3.85148
278.192	3.85148
278.534	3.86534
278.939	3.88061
279.446	3.8961
280.093	3.91067
280.916	3.92316
281.955	3.9324
281.955	3.9324
282.747	3.92584
283.119	3.91751
283.337	3.90362
283.359	3.90036
283.387	3.89699
283.427	3.89355
283.446	3.90572
283.446	3.90572
283.578	3.90509
283.715	3.90435
283.865	3.90354
283.865	3.90354
283.884	3.88952
283.978	3.87513
284.14	3.86046
284.364	3.84559
284.643	3.83063
284.97	3.81565
285.339	3.80074
285.743	3.78599
286.175	3.7715
289.331	3.72941
289.331	3.72941
290.497	3.73534
292.436	3.75884
292.436	3.75884
292.99	3.73998
293.549	3.72111
294.736	3.65203
294.885	3.63522
295.034	3.61838
295.762	3.57218
295.912	3.55611
296.062	3.54001
296.549	3.45452
296.659	3.4421
296.777	3.42835
296.903	3.41346
297.036	3.39762
297.175	3.38104
297.318	3.36391
297.464	3.34643
297.613	3.32881
297.762	3.31123
297.911	3.2939
298.059	3.27701
298.204	3.26077
298.346	3.24537
298.482	3.23101
298.613	3.21789
299.47	3.09791
299.47	3.09791
299.472	3.09942
299.474	3.10081
299.476	3.10214
299.476	3.10214
299.625	3.16393
299.654	3.09761
299.688	3.10211
299.759	3.15005
299.839	3.09724
299.906	3.10208
299.929	3.13025
300.023	3.09677
300.023	3.09677
300.024	3.16847
300.136	3.10204
300.136	3.10204
300.198	3.0815
300.374	3.06621
300.551	3.05088
301.226	2.97236
301.524	2.95394
301.922	2.93526
302.406	2.91775
302.96	2.90284
303.569	2.89197
303.569	2.89197
303.824	2.87832
304.071	2.86464
304.309	2.85096
304.541	2.83725
304.765	2.82353
304.984	2.80979
305.197	2.79604
305.405	2.78227
305.608	2.76849
305.808	2.75469
306.005	2.74087
306.2	2.72704
306.392	2.71319
306.583	2.69933
306.773	2.68545
306.964	2.67156
307.154	2.65765
307.346	2.64373
307.539	2.62979
307.735	2.61584
307.934	2.60188
308.136	2.5879
308.342	2.5739
308.553	2.5599
308.769	2.54588
308.99	2.53184
309.219	2.51779
311.175	2.47252
311.175	2.47252
312.547	2.5116
312.773	2.52718
313.074	2.54074
313.565	2.55027
314.358	2.55379
314.358	2.55379
314.883	2.53579
315.298	2.51557
316.337	2.47206
316.645	2.45566
316.953	2.43926
317.261	2.42286
318.531	2.35004
318.699	2.33601
318.872	2.32197
319.049	2.30791
319.228	2.29383
319.408	2.27973
319.587	2.2656
319.764	2.25144
319.937	2.23724
320.104	2.223
