Uv/Vis Spectrum: N-Methyl-O-toluidine
Formula: C8H11N
CAS: 611-21-2
Boiling point: 207.5
Instrument: n.i.g.
Origin: INSTITUTE OF ENERGY PROBLEMS OF CHEMICAL PHYSICS, RAS
Wavelength (nm)	Logarithm epsilon
319.278	1.08417
319.074	1.13018
318.954	1.15345
318.727	1.15682
318.599	1.15871
318.277	1.21988
318.116	1.25046
317.889	1.26684
317.762	1.2753
317.56	1.33838
317.441	1.36992
316.993	1.393
316.77	1.4048
316.124	1.50303
315.784	1.55389
315.341	1.57396
315.119	1.58399
314.769	1.63925
314.647	1.67048
314.425	1.67385
314.301	1.67574
314.205	1.70728
314.144	1.72305
313.494	1.79931
312.854	1.88204
312.21	1.96149
312.116	1.98791
311.901	2.04129
311.798	2.04464
311.561	2.05133
311.521	2.06676
311.406	2.09816
311.305	2.09973
311.067	2.10341
310.798	2.15769
310.549	2.2202
310.453	2.25728
310.238	2.26064
310.117	2.26253
309.619	2.34678
309.354	2.38916
309.14	2.40254
309.02	2.40923
308.928	2.43709
308.868	2.45128
308.655	2.45465
308.535	2.45654
308.443	2.48808
308.383	2.50385
307.795	2.57534
307.298	2.6601
307.2	2.66168
306.969	2.66536
306.78	2.6999
306.37	2.76953
306.272	2.7711
306.043	2.77478
305.705	2.82813
304.974	2.91623
304.527	2.953
304.06	3.00606
303.912	3.01003
303.591	3.01849
303.378	3.03185
302.248	3.09542
301.733	3.11375
301.033	3.14034
300.814	3.15469
300.286	3.17522
300.085	3.17906
299.685	3.18716
299.648	3.19051
299.542	3.1972
298.586	3.22408
297.784	3.25215
297.325	3.26031
296.046	3.29181
295.656	3.29661
294.88	3.30663
294.651	3.31142
294.163	3.32144
293.232	3.32719
291.761	3.33912
290.736	3.33912
288.708	3.33912
288.271	3.33556
286.917	3.32909
286.734	3.32512
286.368	3.31666
286.204	3.31604
285.848	3.31427
284.647	3.29932
282.789	3.27174
282.738	3.26873
282.637	3.26219
282.459	3.26219
282.104	3.26219
281.901	3.25644
281.473	3.24451
281.247	3.24306
280.795	3.23973
279.594	3.21685
278.359	3.19242
277.72	3.18
276.45	3.15515
276.207	3.14846
275.699	3.13508
275.119	3.12361
273.946	3.10067
273.764	3.09333
273.327	3.08299
273.296	3.07965
273.208	3.07296
272.241	3.05154
271.37	3.02804
271.298	3.0242
271.135	3.0161
270.901	3.01369
270.413	3.00845
270.336	3.00511
270.157	2.99842
270.011	2.99696
269.694	2.99364
268.828	2.97587
267.902	2.96114
267.742	2.96053
267.424	2.95876
267.264	2.95541
266.947	2.94872
266.561	2.94934
265.774	2.95111
265.426	2.95658
264.856	2.96114
264.488	2.96884
263.348	2.98838
263.32	2.99173
263.238	2.99842
263.017	3.00321
262.557	3.01323
262.528	3.01719
262.447	3.02565
262.337	3.02723
262.097	3.03091
261.854	3.04411
261.422	3.07774
261.27	3.07774
260.966	3.07774
260.713	3.09871
259.974	3.14512
259.719	3.15858
258.627	3.22492
258.562	3.23306
258.414	3.24976
257.936	3.27173
257.315	3.30949
257.13	3.32308
256.225	3.38404
255.766	3.40903
255.476	3.43087
255.407	3.43244
255.248	3.43612
255.081	3.44855
254.731	3.4734
254.689	3.4807
254.607	3.49585
254.463	3.49982
254.175	3.50828
253.422	3.55295
252.177	3.62774
252.015	3.64013
251.552	3.66979
251.382	3.67618
250.93	3.70467
250.76	3.72476
250.311	3.75676
250.245	3.75738
250.092	3.75915
249.953	3.76918
249.675	3.78925
249.615	3.7907
249.477	3.79403
249.338	3.80886
249.062	3.83895
248.864	3.84196
248.452	3.8485
248.392	3.85916
248.256	3.881
247.281	3.94227
246.427	3.99568
246.132	4.00715
245.523	4.03008
245.369	4.03343
245.045	4.04012
244.4	4.06168
243.753	4.08026
243.32	4.08744
242.588	4.10224
242.159	4.10426
239.795	4.10511
239.643	4.10415
239.32	4.10224
238.977	4.09208
238.576	4.08026
238.299	4.07785
237.728	4.07261
237.674	4.06927
237.549	4.06258
237.423	4.06113
237.173	4.0578
237.118	4.05539
236.994	4.05015
236.869	4.0487
236.619	4.04538
236.384	4.03676
235.697	4.01049
235.551	4.00954
235.239	4.00763
235.093	4.00462
234.782	3.99807
234.76	3.99315
234.695	3.98278
233.99	3.95996
233.596	3.94312
