Uv/Vis Spectrum: Benzamide, N,N-dimethyl-
Formula: C9H11NO
CAS: 611-74-5
Melting point: 43.5
Instrument: n.i.g.
Origin: INSTITUTE OF ENERGY PROBLEMS OF CHEMICAL PHYSICS, RAS
Wavelength (nm)	Logarithm epsilon
219.336	3.85903
219.536	3.85903
219.736	3.86314
219.96	3.85903
220.585	3.85903
222.233	3.84206
222.657	3.84206
224.105	3.8292
224.53	3.8292
224.73	3.82457
225.978	3.81635
226.403	3.81172
226.403	3.81635
226.602	3.81172
227.027	3.81172
228.475	3.79475
228.675	3.79475
228.9	3.79063
229.099	3.79063
229.299	3.78601
232.62	3.75207
233.045	3.75207
234.493	3.72636
234.493	3.73047
234.718	3.72173
234.917	3.72173
235.117	3.71761
235.342	3.71761
235.542	3.7135
236.79	3.68727
236.79	3.69602
236.99	3.68727
237.215	3.68316
238.438	3.65745
238.438	3.66156
238.863	3.64871
239.062	3.64459
239.062	3.64871
239.287	3.63585
239.287	3.64459
240.536	3.61014
240.736	3.60191
240.736	3.60602
241.56	3.5762
241.56	3.58031
242.409	3.5546
242.409	3.55871
243.657	3.51192
243.657	3.52015
244.881	3.47284
244.881	3.48158
245.105	3.46872
245.929	3.43427
245.929	3.4389
246.129	3.42604
246.129	3.43016
246.354	3.4173
246.354	3.42141
246.978	3.38747
246.978	3.3957
247.178	3.37873
247.178	3.38747
247.378	3.37462
247.378	3.37873
247.602	3.36999
248.851	3.31445
248.851	3.3232
249.051	3.29697
249.051	3.31445
249.25	3.28874
249.25	3.29285
249.675	3.27589
249.675	3.28
249.875	3.27589
250.099	3.26303
250.099	3.27126
250.923	3.22858
251.123	3.21572
251.123	3.22446
251.348	3.21161
251.747	3.18589
251.947	3.17304
251.947	3.18127
252.372	3.1643
252.996	3.12984
253.42	3.11287
253.42	3.1211
254.045	3.08716
254.444	3.0743
254.444	3.07842
255.693	3.03574
255.917	3.02699
255.917	3.03111
256.741	3.00128
257.166	2.99254
257.366	2.98843
257.366	2.99254
257.565	2.98431
258.614	2.95397
258.814	2.94986
259.014	2.94112
259.014	2.94986
259.238	2.94112
259.638	2.93238
261.935	2.87272
262.135	2.86398
262.135	2.8681
262.36	2.85524
262.36	2.86398
263.384	2.82541
263.808	2.80844
263.808	2.81667
264.008	2.80844
264.233	2.80382
266.505	2.70508
266.505	2.71382
266.704	2.70097
267.553	2.65366
267.553	2.6624
267.753	2.6408
267.753	2.64955
267.953	2.63258
267.953	2.6408
268.577	2.59401
268.577	2.60686
268.802	2.58527
268.802	2.58938
269.002	2.57241
269.002	2.58064
269.626	2.53796
269.626	2.54207
269.826	2.5251
269.826	2.53384
270.05	2.51636
270.05	2.52099
270.675	2.47368
270.675	2.48242
270.875	2.46082
270.875	2.46956
271.299	2.43099
271.499	2.41351
271.499	2.42637
271.699	2.40066
271.699	2.41351
272.123	2.3662
272.123	2.37083
272.323	2.34923
272.323	2.36209
272.947	2.30655
272.947	2.31478
273.147	2.29369
273.147	2.30655
273.372	2.28907
273.771	2.24639
273.771	2.25924
273.996	2.23353
273.996	2.24639
274.62	2.1821
274.62	2.19033
274.82	2.17336
274.82	2.1821
275.244	2.13891
275.244	2.14765
275.444	2.13068
275.444	2.1348
275.644	2.10908
275.644	2.12605
275.869	2.07926
276.068	2.06177
276.068	2.07463
276.268	2.0448
276.268	2.05766
276.693	2.00161
276.693	2.01035
276.892	1.98464
276.892	1.9975
277.517	1.9291
277.517	1.95019
277.741	1.91162
277.741	1.9291
278.141	1.87305
278.141	1.8859
278.366	1.85197
278.366	1.87305
278.765	1.80003
278.765	1.81751
278.99	1.78306
278.99	1.79591
279.389	1.72289
279.389	1.74449
279.589	1.68021
279.589	1.69307
279.814	1.66273
279.814	1.68021
280.213	1.6113
280.213	1.62416
280.438	1.59022
280.438	1.6113
280.838	1.54291
280.838	1.55988
281.062	1.52594
281.062	1.5388
281.262	1.49149
281.262	1.4956
281.462	1.46989
281.462	1.48737
281.687	1.44829
281.687	1.46577
281.886	1.40972
281.886	1.41847
282.086	1.39687
282.086	1.40561
282.311	1.38401
282.311	1.39687
282.511	1.34544
282.511	1.3583
282.71	1.31562
282.71	1.33722
282.935	1.27242
282.935	1.28116
283.135	1.24671
283.135	1.26831
283.335	1.2426
283.559	1.20814
283.759	1.18243
283.759	1.20403
283.959	1.17832
284.184	1.13975
284.184	1.14849
284.383	1.11815
284.383	1.13563
284.583	1.1053
284.583	1.11404
284.808	1.07547
285.008	1.05798
285.008	1.07084
285.207	1.05387
