Uv/Vis Spectrum: 4-Chloroquinoline
Formula: C9H6ClN
CAS: 611-35-8
Melting point: 34.5
Boiling point: 262; 130(15)
Instrument: n.i.g.
Origin: INSTITUTE OF ENERGY PROBLEMS OF CHEMICAL PHYSICS, RAS
Wavelength (nm)	Logarithm epsilon
220	4.4
221	4.45
222	4.49
223	4.53
224	4.53
225	4.52
226	4.52
227	4.52
228	4.52
229	4.51
230	4.47
231	4.43
232	4.38
233	4.29
234	4.21
235	4.13
236	4.05
237	3.97
238	3.89
239	3.81
240	3.73
241	3.65
242	3.57
243	3.49
244	3.43
245	3.37
246	3.3
247	3.24
248	3.2
249	3.2
250	3.2
251	3.2
252	3.2
253	3.2
254	3.2
255	3.2
256	3.21
257	3.21
258	3.21
259	3.21
260	3.21
261	3.21
262	3.21
263	3.21
264	3.22
265	3.24
266	3.25
267	3.27
268	3.29
269	3.3
270	3.32
271	3.34
272	3.35
273	3.38
274	3.39
275	3.4
276	3.41
277	3.43
278	3.44
279	3.45
280	3.47
281	3.48
282	3.49
283	3.5
284	3.51
285	3.5
286	3.51
287	3.51
288	3.51
289	3.51
290	3.52
291	3.52
292	3.52
293	3.53
294	3.53
295	3.53
296	3.54
297	3.54
298	3.54
299	3.55
300	3.55
301	3.55
302	3.56
303	3.56
304	3.56
305	3.56
306	3.57
307	3.57
308	3.57
309	3.58
310	3.58
311	3.58
312	3.59
313	3.59
314	3.59
315	3.6
316	3.6
317	3.57
318	3.54
319	3.51
