Uv/Vis Spectrum: 4-Quinolinol
Formula: C9H7NO
CAS: 611-36-9
Melting point: 200-202
Instrument: Beckman DU
Origin: INSTITUTE OF ENERGY PROBLEMS OF CHEMICAL PHYSICS, RAS
Wavelength (nm)	Logarithm epsilon
260.23	3.273
261.94	3.289
262.9	3.299
263.89	3.307
264.61	3.314
265.43	3.321
265.92	3.326
266.42	3.33
267.02	3.337
267.6	3.342
268.12	3.349
270.78	3.38
272.23	3.397
272.96	3.406
274.66	3.426
277.32	3.463
277.56	3.467
279.5	3.494
280.96	3.514
281.2	3.517
282.65	3.542
284.98	3.579
286.56	3.606
289.13	3.651
290.89	3.679
293.22	3.721
294.76	3.753
294.96	3.758
295.25	3.764
295.49	3.771
295.71	3.777
295.99	3.785
296.38	3.795
296.75	3.806
297.43	3.826
297.67	3.832
297.91	3.84
298.16	3.847
299.37	3.875
299.61	3.88
299.77	3.886
300.09	3.894
301.06	3.909
301.31	3.912
301.55	3.914
301.79	3.917
302.76	3.929
303	3.932
303.24	3.936
303.47	3.94
303.73	3.943
303.97	3.946
304.21	3.951
304.45	3.953
305.67	3.969
305.91	3.973
306.15	3.977
306.39	3.983
306.64	3.986
306.88	3.99
307.85	4.009
308.08	4.012
308.34	4.016
308.59	4.02
308.84	4.025
309.04	4.029
309.78	4.045
310.03	4.049
310.27	4.054
310.51	4.059
311	4.072
311.24	4.078
311.48	4.083
311.97	4.091
312.21	4.091
312.45	4.091
312.69	4.091
312.93	4.088
313.18	4.084
313.66	4.075
313.9	4.071
314.15	4.066
314.38	4.061
314.87	4.05
315.11	4.044
315.36	4.038
315.6	4.033
315.78	4.028
316.08	4.019
316.33	4.013
316.62	4.007
317.05	4.001
317.29	4
317.54	3.999
317.78	3.999
318.02	3.999
318.26	3.997
318.51	3.997
318.75	3.997
318.99	3.997
319.23	3.997
319.48	3.997
319.72	3.997
319.95	3.998
320.2	3.997
320.68	3.999
321.13	4.002
321.41	4.005
321.66	4.006
321.9	4.009
322.14	4.013
322.62	4.024
322.87	4.03
323.11	4.036
323.34	4.043
323.59	4.05
323.84	4.054
324.08	4.055
324.32	4.055
324.56	4.054
324.82	4.05
325.05	4.042
325.29	4.022
325.49	4.004
325.72	3.991
326	3.97
326.26	3.94
326.47	3.923
326.74	3.894
326.99	3.876
327.23	3.84
327.47	3.81
327.95	3.764
328.2	3.735
328.44	3.707
328.68	3.673
328.92	3.631
329.19	3.589
329.41	3.557
329.65	3.52
329.89	3.498
330.13	3.467
330.34	3.442
330.62	3.402
330.92	3.372
331.15	3.347
331.35	3.325
331.83	3.267
332.07	3.244
332.31	3.219
332.55	3.202
332.8	3.187
333.02	3.172
333.28	3.156
333.53	3.144
334.74	3.088
335.17	3.067
335.48	3.052
335.71	3.043
335.95	3.034
336.2	3.025
336.45	3.017
336.68	3.014
