Uv/Vis Spectrum: 3,3'-Dimethylbiphenyl
Formula: C14H14
CAS: 612-75-9
Melting point: 9
Boiling point: 280
Instrument: Beckman spectrophotometer
Origin: INSTITUTE OF ENERGY PROBLEMS OF CHEMICAL PHYSICS, RAS
Wavelength (nm)	Logarithm epsilon
221.222	4.0706
221.402	4.05643
221.549	4.04464
221.673	4.03463
221.786	4.02569
221.898	4.01701
222.021	4.00775
222.166	3.99696
222.343	3.9836
222.565	3.96648
222.565	3.96648
222.956	3.94195
223.244	3.92389
223.465	3.90963
223.652	3.89589
223.841	3.87892
223.841	3.87892
224.332	3.85789
224.676	3.84396
225.168	3.82539
225.168	3.82539
226.108	3.80138
226.677	3.78509
227.362	3.76272
227.362	3.76272
227.652	3.76266
227.941	3.76259
228.231	3.76252
228.231	3.76252
228.439	3.76491
228.645	3.76721
228.846	3.76934
228.846	3.76934
229.253	3.77837
229.657	3.78707
230.056	3.79552
230.056	3.79552
230.469	3.80786
230.633	3.81392
230.688	3.8191
230.688	3.8191
230.871	3.82432
231.124	3.8314
231.529	3.84322
232.166	3.86227
233.118	3.8903
233.118	3.8903
233.608	3.9075
234.095	3.92405
234.579	3.93999
235.063	3.95536
235.063	3.95536
235.747	3.97411
236.161	3.9856
236.619	3.99692
236.619	3.99692
237.124	4.01107
237.619	4.02433
238.101	4.03674
238.569	4.04835
239.021	4.05919
239.456	4.06928
239.871	4.07866
240.265	4.08733
240.637	4.09532
240.983	4.10264
241.304	4.1093
241.597	4.11532
241.86	4.1207
242.091	4.12544
242.289	4.12954
242.452	4.13301
242.452	4.13301
243.103	4.1424
243.748	4.15156
244.39	4.16046
244.39	4.16046
245.028	4.16773
245.661	4.17482
246.291	4.18177
246.291	4.18177
246.663	4.18476
247.032	4.18767
247.396	4.19053
247.396	4.19053
248.233	4.19485
249.069	4.19906
249.905	4.20321
249.905	4.20321
250.215	4.20391
250.519	4.20455
250.821	4.20517
250.821	4.20517
251.258	4.20513
251.689	4.2051
252.118	4.20506
252.118	4.20506
252.441	4.20393
252.761	4.20285
253.076	4.20181
253.076	4.20181
253.633	4.19748
254.08	4.19383
254.573	4.1895
255.269	4.18309
256.322	4.17307
256.322	4.17307
256.872	4.16501
257.422	4.15683
257.969	4.14852
258.513	4.14006
258.513	4.14006
258.613	4.13961
258.709	4.13916
258.801	4.13871
258.801	4.13871
258.856	4.13698
258.936	4.13496
259.078	4.13188
259.323	4.12697
259.707	4.11937
260.27	4.10817
261.05	4.09223
262.086	4.07017
262.086	4.07017
262.136	4.06735
262.229	4.06446
262.279	4.06161
262.279	4.06161
263.155	4.03824
263.935	4.01646
264.625	3.99637
265.229	3.97809
265.755	3.96167
266.207	3.94716
266.59	3.93455
266.911	3.9238
267.174	3.91484
267.386	3.90754
267.551	3.90177
267.676	3.89734
267.766	3.89405
267.827	3.89169
267.863	3.89004
267.881	3.88885
267.881	3.88885
268.89	3.85871
269.629	3.83495
270.149	3.81723
270.498	3.8048
270.728	3.79654
270.886	3.79105
271.023	3.78681
271.023	3.78681
271.219	3.77925
271.543	3.76774
271.971	3.75271
272.482	3.73459
273.053	3.71381
273.663	3.69088
274.289	3.6664
274.909	3.64114
275.501	3.61609
