Uv/Vis Spectrum: 2,2'-Binaphthyl
Formula: C20H14
CAS: 612-78-2
Melting point: 188.3
Boiling point: 452
Instrument: Beckman spectrophotometer
Origin: INSTITUTE OF ENERGY PROBLEMS OF CHEMICAL PHYSICS, RAS
Wavelength (nm)	Logarithm epsilon
206.312	4.6008
206.619	4.60093
206.929	4.60105
207.247	4.60118
208.45	4.60386
208.724	4.60469
209.006	4.60544
209.293	4.60603
210.292	4.63271
210.381	4.6342
210.474	4.6356
210.575	4.63684
211.202	4.6579
211.476	4.65873
211.759	4.65948
212.045	4.66007
213.163	4.65687
213.292	4.6539
213.421	4.65076
213.55	4.64754
214.308	4.62704
214.373	4.62085
214.447	4.61458
214.524	4.60815
215.108	4.58175
215.24	4.57559
215.372	4.56944
215.504	4.56329
216.08	4.54455
216.175	4.539
216.271	4.5333
216.367	4.52751
217.448	4.48817
217.509	4.48199
217.574	4.47581
217.647	4.46963
218.42	4.45097
218.481	4.44478
218.546	4.4385
218.619	4.43207
219.584	4.40217
219.643	4.39781
219.706	4.39346
219.776	4.38911
220.556	4.36461
220.83	4.35649
220.932	4.3517
220.952	4.34615
221.905	4.32756
222.022	4.32458
222.146	4.32144
222.274	4.31822
223.988	4.29446
224.115	4.29331
224.243	4.292
224.37	4.29061
226.042	4.29128
226.407	4.29143
226.78	4.29158
227.157	4.29174
228.458	4.30358
228.707	4.30623
228.956	4.30889
229.205	4.31155
230.761	4.33882
230.909	4.34023
231.065	4.34149
231.225	4.34266
234.888	4.42152
235.011	4.42484
235.134	4.42808
235.257	4.43116
235.969	4.45627
236.143	4.46327
236.321	4.47028
236.506	4.47729
237.421	4.49846
237.71	4.50906
237.978	4.51632
238.151	4.52321
238.874	4.53847
239.048	4.545
239.226	4.55138
239.413	4.55767
240.319	4.5865
240.441	4.59093
240.562	4.59536
240.684	4.59979
241.501	4.62859
241.588	4.6319
241.674	4.63512
241.761	4.63819
242.307	4.6687
242.393	4.67614
242.558	4.68378
242.644	4.69147
243.738	4.73169
243.914	4.73614
244.094	4.7406
244.282	4.74505
244.817	4.7679
245.117	4.77448
245.421	4.7809
245.733	4.78725
246.644	4.81207
246.82	4.81652
247	4.82098
247.188	4.82543
249.75	4.89071
249.752	4.88841
249.755	4.88595
249.757	4.88341
250.844	4.91232
251.02	4.91677
251.2	4.92122
251.388	4.92568
253.393	4.97175
253.715	4.97299
253.976	4.97039
254.247	4.96261
254.915	4.94208
255.186	4.93637
255.289	4.93149
255.311	4.92326
255.894	4.89722
255.988	4.89423
256.086	4.89108
256.192	4.88785
257.065	4.85973
257.123	4.85538
257.186	4.85102
257.257	4.84667
257.839	4.82246
257.934	4.81811
258.033	4.81377
258.139	4.80944
258.631	4.78482
258.69	4.78118
258.752	4.77746
258.822	4.77358
259.607	4.74361
259.704	4.73671
259.801	4.72982
259.897	4.72292
260.594	4.69109
260.713	4.68565
260.839	4.68013
260.97	4.67445
261.57	4.64988
261.69	4.64252
261.819	4.635
261.952	4.6274
262.726	4.60874
262.858	4.60257
262.99	4.59633
263.122	4.58992
263.885	4.56395
263.905	4.55821
264.007	4.55381
264.279	4.54696
265.059	4.52282
265.118	4.51774
265.182	4.51265
265.253	4.50757
266.218	4.47767
266.349	4.47224
266.481	4.46672
266.612	4.46104
267.748	4.4407
267.875	4.43955
268.002	4.43823
268.129	4.43684
269.431	4.43007
269.649	4.42832
269.871	4.42649
270.102	4.4245
271.528	4.40062
271.658	4.39701
271.787	4.39332
271.917	4.38947
273.061	4.35964
273.064	4.35709
273.066	4.35453
273.069	4.35198
274.411	4.32223
274.436	4.32042
274.469	4.3186
274.506	4.31679
275.743	4.28518
275.927	4.28159
276.115	4.27792
276.311	4.27409
277.257	4.26316
277.512	4.25951
277.768	4.25569
278.024	4.2518
279.347	4.24102
279.438	4.24058
279.528	4.23998
279.619	4.2393
281.038	4.22309
281.348	4.21946
281.662	4.21567
281.984	4.2118
282.567	4.18576
282.75	4.184
282.936	4.18225
283.13	4.18051
285.009	4.17178
285.441	4.17196
285.877	4.17213
286.322	4.17232
287.803	4.18423
288.053	4.18568
288.303	4.18698
288.554	4.18819
290.125	4.20014
290.339	4.20158
290.554	4.20285
290.769	4.20405
292.444	4.22006
292.57	4.22011
292.695	4.22016
292.821	4.22021
294.394	4.23034
294.608	4.23225
294.822	4.23416
295.036	4.23607
296.517	4.24799
296.821	4.25067
297.128	4.25335
297.444	4.25603
298.837	4.26609
299.053	4.26689
299.273	4.26761
299.5	4.26818
301.437	4.2748
301.526	4.27556
301.62	4.27623
301.722	4.27675
303.416	4.27378
303.597	4.27338
303.782	4.27282
303.975	4.27219
305.653	4.26703
305.904	4.26713
306.156	4.26723
306.408	4.26733
307.53	4.26012
307.621	4.25969
307.716	4.25909
307.82	4.25842
309.807	4.23076
309.898	4.23032
309.988	4.22972
310.079	4.22904
311.325	4.20509
311.51	4.20079
311.699	4.19649
311.896	4.19219
313.236	4.16426
313.261	4.16243
313.295	4.16053
313.332	4.15846
314.586	4.12685
314.705	4.12068
314.833	4.11444
314.964	4.10803
315.925	4.08214
316.02	4.0778
316.119	4.07346
316.226	4.06912
317.29	4.02977
317.347	4.02677
317.409	4.0236
317.479	4.02036
318.262	3.99221
318.394	3.98604
318.526	3.9798
318.658	3.97339
319.425	3.94341
319.49	3.93723
319.564	3.93106
319.641	3.92488
320.412	3.89089
320.478	3.88471
320.551	3.87853
320.628	3.87236
321.208	3.8496
321.269	3.84342
321.334	3.83724
321.406	3.83107
321.986	3.80831
322.051	3.80285
322.124	3.79731
322.201	3.79161
322.416	3.75556
322.477	3.74891
322.543	3.7421
322.616	3.73521
323.022	3.7069
323.082	3.69751
323.185	3.68975
323.246	3.68035
323.829	3.65431
323.891	3.64693
323.957	3.63938
324.031	3.63176
324.431	3.60893
324.493	3.60155
324.559	3.59401
324.633	3.58638
325.238	3.55634
325.303	3.5464
325.371	3.53631
325.448	3.52613
325.855	3.49637
325.916	3.48946
325.982	3.48255
326.055	3.47565
326.271	3.4396
326.298	3.43523
326.334	3.43087
326.374	3.4265
326.891	3.39459
326.951	3.38904
327.015	3.38332
327.087	3.37752
327.673	3.34929
327.737	3.34383
327.81	3.33829
327.887	3.33259
328.66	3.29677
328.722	3.29386
328.792	3.29088
328.866	3.28773
330.394	3.25222
330.419	3.2504
330.452	3.24859
330.49	3.24678
331.719	3.22246
331.813	3.21812
331.912	3.21378
332.019	3.20944
333.248	3.18549
333.25	3.18294
333.253	3.18038
333.255	3.17783
334.41	3.15567
334.542	3.1495
334.674	3.14326
334.807	3.13685
335.39	3.11044
335.416	3.10752
335.451	3.10452
335.489	3.10136
336.168	3.06915
