Uv/Vis Spectrum: 4-metthyl-2-(4-nitrophenyl)-4H-pyrrolo[1,2-a]benzimidazole
Formula: C17H13N3O2
CAS: 6123-77-9
Melting point: 180-182
Instrument: Specord UV-Vis
Origin: INSTITUTE OF ENERGY PROBLEMS OF CHEMICAL PHYSICS, RAS
Wavelength (nm)	Logarithm epsilon
257.842	4.106
259.342	4.146
260.842	4.175
262.342	4.196
263.842	4.208
265.342	4.212
266.842	4.21
268.342	4.201
269.842	4.187
271.342	4.169
272.842	4.147
274.342	4.122
275.842	4.096
277.342	4.067
278.842	4.037
280.342	4.005
281.842	3.972
283.342	3.936
283.478	3.932
284.978	3.89
286.478	3.849
287.978	3.811
289.478	3.777
290.978	3.746
292.478	3.72
293.978	3.699
295.478	3.682
296.978	3.67
298.478	3.661
299.978	3.655
301.478	3.653
302.978	3.652
304.478	3.653
305.978	3.656
307.478	3.66
308.978	3.664
310.478	3.67
311.978	3.676
313.478	3.684
314.978	3.693
315.217	3.696
316.717	3.708
318.217	3.719
319.717	3.731
321.217	3.742
322.717	3.755
324.217	3.769
325.717	3.783
327.217	3.798
328.717	3.813
330.217	3.828
331.717	3.843
333.217	3.858
334.717	3.873
336.217	3.887
337.717	3.901
339.217	3.916
340.717	3.93
342.217	3.945
343.717	3.96
345.217	3.975
346.717	3.991
348.217	4.008
349.717	4.023
349.806	4.023
351.306	4.036
352.806	4.053
354.306	4.07
355.806	4.089
357.306	4.107
358.806	4.125
360.306	4.143
361.806	4.159
363.306	4.174
364.806	4.189
366.306	4.202
367.806	4.215
369.306	4.226
370.806	4.237
372.306	4.248
373.806	4.257
375.306	4.266
376.806	4.274
378.306	4.28
379.806	4.285
381.306	4.288
382.806	4.289
384.306	4.288
385.806	4.283
387.306	4.276
388.806	4.265
390.306	4.25
390.498	4.247
391.998	4.235
393.498	4.221
394.998	4.204
396.498	4.185
397.998	4.165
399.498	4.145
400.998	4.123
402.498	4.102
403.998	4.081
405.498	4.059
406.998	4.038
408.498	4.017
409.998	3.997
411.498	3.976
412.998	3.956
414.498	3.936
415.998	3.915
417.498	3.895
418.998	3.876
420.498	3.856
421.998	3.837
423.498	3.819
424.998	3.801
426.498	3.785
426.714	3.784
428.214	3.765
429.714	3.746
431.214	3.729
432.714	3.713
434.214	3.699
434.573	3.697
436.073	3.685
437.573	3.676
439.073	3.669
440.573	3.663
442.073	3.658
443.573	3.655
445.073	3.651
446.573	3.648
448.073	3.646
449.573	3.644
451.073	3.642
452.573	3.641
454.073	3.641
455.573	3.641
456.855	3.642
458.355	3.642
459.855	3.642
461.355	3.641
462.855	3.641
464.355	3.64
465.855	3.639
467.355	3.638
468.855	3.637
470.355	3.636
471.855	3.635
473.355	3.634
474.855	3.633
476.355	3.633
477.855	3.632
479.355	3.631
480.855	3.631
482.355	3.629
483.855	3.628
485.355	3.627
486.855	3.625
488.355	3.624
489.855	3.624
491.355	3.624
492.547	3.624
494.047	3.623
495.547	3.623
497.047	3.622
498.547	3.622
500.047	3.621
501.547	3.621
503.047	3.62
504.547	3.62
506.047	3.62
507.547	3.62
509.047	3.621
510.547	3.622
