Uv/Vis Spectrum: Quinoline, 7-methyl-
Formula: C10H9N
CAS: 612-60-2
Melting point: 39
Boiling point: 257.6
Instrument: unknown
Origin: INSTITUTE OF ENERGY PROBLEMS OF CHEMICAL PHYSICS, RAS
Wavelength (nm)	Logarithm epsilon
220.91	4.454
221.07	4.458
221.24	4.458
221.41	4.462
221.58	4.462
221.74	4.466
221.91	4.466
222.08	4.47
222.25	4.47
222.41	4.474
222.58	4.474
222.75	4.474
222.91	4.478
223.08	4.478
223.25	4.483
223.42	4.483
223.58	4.487
223.92	4.491
224.25	4.496
224.64	4.5
224.92	4.503
225.26	4.507
225.59	4.511
225.89	4.516
226.24	4.521
226.59	4.523
226.93	4.519
227.26	4.511
227.6	4.507
227.93	4.507
228.3	4.51
228.6	4.515
228.94	4.523
229.04	4.529
229.27	4.532
229.43	4.532
229.6	4.528
229.94	4.483
230.1	4.464
230.61	4.438
230.94	4.425
231.28	4.421
231.61	4.425
231.95	4.429
232.28	4.442
232.62	4.45
232.95	4.45
233.28	4.446
233.62	4.434
233.95	4.397
234.29	4.356
234.62	4.315
234.96	4.2
235.29	4.041
235.63	3.947
235.92	3.876
236.13	3.819
236.23	3.795
236.35	3.772
236.5	3.749
236.63	3.73
236.92	3.701
237.26	3.668
237.5	3.648
237.8	3.628
238.64	3.554
239.47	3.489
240.28	3.419
241.08	3.371
241.98	3.33
242.71	3.31
243.65	3.293
244.49	3.28
245.33	3.272
246.16	3.268
247	3.272
247.84	3.276
248.67	3.28
249.62	3.286
250.33	3.291
251.19	3.295
252.02	3.301
252.85	3.309
253.71	3.319
254.52	3.328
255.36	3.338
256.2	3.346
257.04	3.358
257.81	3.369
258.72	3.384
259.54	3.395
260.38	3.407
261.22	3.415
262.05	3.424
262.89	3.432
263.73	3.44
264.68	3.449
265.58	3.458
266.23	3.464
267.1	3.471
267.91	3.477
268.74	3.485
269.63	3.493
270.53	3.5
271.25	3.505
272.1	3.511
272.96	3.516
273.72	3.52
274.6	3.522
275.43	3.522
276.29	3.52
277.11	3.518
277.94	3.514
278.78	3.509
279.62	3.505
280.33	3.501
281.24	3.495
282.05	3.488
282.96	3.483
283.8	3.477
284.63	3.47
285.47	3.464
286.31	3.456
287.14	3.448
287.99	3.436
288.81	3.419
289.15	3.413
289.33	3.41
289.48	3.407
289.65	3.403
289.82	3.403
289.99	3.403
290.15	3.399
290.32	3.399
290.49	3.399
290.65	3.395
290.82	3.395
290.99	3.395
291.16	3.391
291.32	3.391
291.49	3.391
291.64	3.394
291.83	3.403
292.16	3.403
292.49	3.403
292.83	3.399
293.16	3.399
293.5	3.399
293.83	3.395
294.17	3.391
294.5	3.379
294.84	3.375
295.17	3.366
295.51	3.358
295.84	3.354
296.17	3.35
296.51	3.346
296.84	3.346
297.18	3.346
297.51	3.346
297.85	3.342
298.18	3.342
298.52	3.338
298.85	3.334
299.19	3.33
299.52	3.325
299.85	3.317
300.19	3.305
300.52	3.293
300.86	3.289
301.19	3.285
301.53	3.285
301.9	3.288
302.2	3.293
302.53	3.297
302.91	3.306
303.2	3.313
303.57	3.319
303.87	3.325
304.2	3.334
304.54	3.346
304.78	3.366
305.21	3.391
305.54	3.399
305.88	3.399
306.21	3.391
306.54	3.383
306.88	3.37
307.21	3.354
307.55	3.334
307.88	3.317
308.22	3.309
308.55	3.301
308.89	3.297
309.07	3.293
309.43	3.287
309.88	3.283
310.22	3.285
310.56	3.289
310.89	3.289
311.23	3.285
311.56	3.276
311.9	3.272
312.23	3.256
312.57	3.235
312.9	3.219
313.23	3.211
313.57	3.195
313.9	3.182
314.24	3.17
314.57	3.162
314.91	3.154
315.24	3.154
315.58	3.162
315.91	3.182
316.3	3.208
316.58	3.231
316.93	3.262
317.25	3.289
317.58	3.334
317.93	3.378
318.25	3.424
318.59	3.481
318.92	3.485
319.26	3.448
319.59	3.395
319.91	3.347
320.26	3.297
320.59	3.252
320.86	3.21
321.1	3.167
321.57	3.08
322.01	2.992
322.6	2.884
322.94	2.802
323.27	2.716
323.6	2.63
323.94	2.569
324.27	2.508
324.61	2.414
324.94	2.373
325.28	2.316
325.61	2.275
325.95	2.234
326.28	2.176
326.62	2.144
326.95	2.099
327.28	2.062
327.62	2.021
327.96	1.989
328.29	1.956
328.62	1.919
328.96	1.882
329.26	1.849
329.63	1.821
329.96	1.792
330.3	1.759
330.63	1.735
330.97	1.705
331.3	1.679
331.63	1.653
331.97	1.633
332.31	1.607
332.64	1.58
332.97	1.559
