Uv/Vis Spectrum: 1,4-Dihydronaphthalene
Formula: C10H10
CAS: 612-17-9
Melting point: 25
Boiling point: 211.5
Instrument: n.i.g.
Origin: INSTITUTE OF ENERGY PROBLEMS OF CHEMICAL PHYSICS, RAS
Wavelength (nm)	Logarithm epsilon
224.622	3.09409
224.765	3.05486
224.859	3.03092
224.925	3.01827
224.982	3.01291
225.052	3.01085
225.157	2.99223
225.31	2.97177
225.464	2.95126
225.617	2.93063
225.987	2.9062
226.417	2.87374
226.573	2.85982
226.588	2.85251
226.965	2.83374
227.178	2.81816
227.46	2.79996
227.845	2.78377
228.224	2.76629
228.544	2.74979
228.915	2.73309
229.364	2.71618
229.882	2.69579
230.071	2.6917
230.153	2.68785
230.199	2.68092
230.199	2.68092
230.652	2.66926
231.107	2.65747
231.568	2.64563
232.346	2.6251
232.849	2.61289
233.352	2.60057
233.855	2.58819
235.232	2.55934
235.805	2.5507
236.379	2.54195
236.952	2.53314
238.01	2.51787
238.798	2.50954
239.615	2.50178
240.137	2.49531
241.204	2.48674
241.269	2.48637
241.337	2.48589
241.411	2.48534
241.604	2.48395
242.322	2.48355
243.047	2.48316
243.774	2.48276
244.644	2.48229
245.563	2.48905
246.291	2.49621
247.452	2.50989
248.14	2.51776
248.688	2.52899
249.407	2.54317
250.072	2.55125
250.072	2.55125
250.074	2.55305
250.077	2.55485
250.079	2.55666
250.77	2.56685
251.593	2.57826
252.203	2.58824
252.708	2.59518
253.322	2.60696
254.077	2.61685
254.836	2.62668
255.6	2.63639
256.424	2.64935
256.964	2.65277
257.805	2.65906
259.429	2.66911
260.385	2.674
261.602	2.67779
262.373	2.68074
263.233	2.68302
264.057	2.69597
264.484	2.71274
264.913	2.72945
265.349	2.74605
265.907	2.7643
266.059	2.77293
266.145	2.78331
266.236	2.80434
266.236	2.80434
266.502	2.81161
266.542	2.82815
266.552	2.81952
266.696	2.84533
266.9	2.85975
267.124	2.87294
267.518	2.88179
268.231	2.88316
268.747	2.86174
268.939	2.84024
269.134	2.81874
269.334	2.79724
269.442	2.78119
269.557	2.75337
269.642	2.73942
269.77	2.7274
269.887	2.70877
270.068	2.6928
270.345	2.67826
270.758	2.66164
270.899	2.66002
271.03	2.66046
271.164	2.6609
271.304	2.66134
271.304	2.66134
271.494	2.67825
271.684	2.69516
271.877	2.71207
272.074	2.72898
272.289	2.74355
272.514	2.76172
272.743	2.77983
272.976	2.79783
273.002	2.81663
273.194	2.84418
273.317	2.85728
273.475	2.86716
273.991	2.89214
274.379	2.90896
274.727	2.91663
275.51	2.91812
275.51	2.91812
275.703	2.91386
275.819	2.90999
275.957	2.90318
276.07	2.88172
276.177	2.86267
276.29	2.84534
276.384	2.81737
276.492	2.80132
276.668	2.76265
276.783	2.74531
276.819	2.73696
276.923	2.71834
276.982	2.70326
277.05	2.69092
277.123	2.6777
277.199	2.65997
277.274	2.63411
277.447	2.6085
277.485	2.58939
277.524	2.57023
277.562	2.55095
277.735	2.5256
277.776	2.50829
277.817	2.49093
277.858	2.47346
277.9	2.44791
277.906	2.43682
277.958	2.42615
278.225	2.3918
278.236	2.39978
278.248	2.40777
278.259	2.41575
278.259	2.41575
