Uv/Vis Spectrum: 2,3,4,5-tetrahydro-5-methyl-1-phenyl-1H-pyridazino[4,5-b]indole
Formula: C17H17N3
CAS: 61381-49-5
Melting point: 112
Instrument: SF-16
Origin: INSTITUTE OF ENERGY PROBLEMS OF CHEMICAL PHYSICS, RAS
Wavelength (nm)	Logarithm epsilon
249.224	4.139
250.224	4.123
251.224	4.107
252.224	4.092
253.224	4.077
254.224	4.065
255.224	4.054
256.224	4.045
257.224	4.038
258.224	4.034
259.224	4.031
260.224	4.03
261.224	4.03
262.224	4.032
263.224	4.034
264.224	4.038
265.224	4.042
266.224	4.047
267.224	4.052
268.224	4.057
269.224	4.063
270.224	4.07
271.224	4.076
272.224	4.084
273.224	4.091
274.224	4.099
275.224	4.107
276.224	4.115
276.255	4.114
277.255	4.122
278.255	4.128
279.255	4.134
280.255	4.139
281.255	4.144
282.255	4.147
283.255	4.148
284.255	4.148
285.255	4.147
286.255	4.144
287.255	4.14
288.255	4.134
289.255	4.126
290.255	4.117
291.255	4.106
292.255	4.093
293.255	4.079
294.255	4.064
295.255	4.047
296.255	4.03
297.255	4.013
298.255	3.995
299.192	3.978
300.192	3.962
301.192	3.946
302.192	3.928
303.192	3.911
304.192	3.892
305.192	3.874
306.192	3.857
307.192	3.839
308.192	3.822
309.192	3.806
310.192	3.789
311.192	3.774
312.192	3.759
313.192	3.745
314.192	3.731
315.192	3.718
316.192	3.705
317.192	3.693
318.192	3.682
319.192	3.672
320.192	3.663
321.079	3.655
322.079	3.65
323.079	3.645
324.079	3.64
325.079	3.635
326.079	3.63
327.079	3.624
328.079	3.618
329.079	3.612
330.079	3.606
331.079	3.6
332.079	3.594
333.079	3.589
334.079	3.583
335.079	3.578
336.079	3.573
337.079	3.567
338.079	3.561
