Uv/Vis Spectrum: 2-Hydroxyanthracene
Formula: C14H10O
CAS: 613-14-9
Boiling point: > 200 dec
Instrument: Unicam SP 700
Origin: INSTITUTE OF ENERGY PROBLEMS OF CHEMICAL PHYSICS, RAS
Wavelength (nm)	Logarithm epsilon
223.38	4.027
224.24	4.016
225.11	4.008
226.09	4.003
227.08	3.997
228.09	3.995
228.87	4.005
229.66	4.016
230.35	4.031
231.03	4.046
231.49	4.063
232.07	4.08
232.42	4.097
232.77	4.116
233.23	4.133
233.58	4.152
233.82	4.171
234.17	4.19
234.53	4.208
234.88	4.225
235.24	4.244
235.6	4.263
235.87	4.281
236.19	4.301
236.43	4.32
236.79	4.339
237.04	4.359
237.28	4.378
237.59	4.398
237.88	4.416
238.13	4.435
238.49	4.454
238.94	4.473
239.6	4.488
240.34	4.503
240.84	4.52
241.22	4.539
241.47	4.559
241.84	4.578
242.22	4.597
242.47	4.616
242.85	4.635
243.23	4.654
243.62	4.673
244	4.693
244.38	4.712
244.64	4.731
245.03	4.75
245.41	4.769
245.67	4.788
246.06	4.807
246.32	4.827
246.59	4.846
246.85	4.865
247.11	4.884
247.5	4.903
247.9	4.922
248.7	4.937
249.5	4.95
250.3	4.963
250.98	4.98
251.52	4.997
252.06	5.014
252.75	5.031
253.3	5.048
253.85	5.065
254.41	5.082
254.83	5.099
255.39	5.116
255.95	5.129
256.09	5.133
256.23	5.135
256.37	5.139
256.51	5.141
256.65	5.144
256.8	5.148
256.94	5.15
257.22	5.152
257.65	5.159
258.08	5.152
258.51	5.144
258.94	5.133
259.37	5.086
259.81	5.039
260.24	4.965
260.68	4.922
261.12	4.863
261.56	4.816
262	4.754
262.45	4.697
262.89	4.629
263.34	4.576
263.78	4.525
264.23	4.473
264.69	4.442
265.14	4.401
265.59	4.365
266.05	4.314
266.51	4.278
266.96	4.231
267.42	4.176
267.89	4.129
268.35	4.11
268.82	4.078
269.28	4.05
269.75	4.029
270.22	4.001
270.69	3.978
271.17	3.956
271.64	3.935
272.12	3.914
272.6	3.897
273.08	3.882
273.56	3.867
274.04	3.854
274.53	3.844
275.01	3.831
275.5	3.82
275.99	3.805
276.48	3.801
276.98	3.791
277.47	3.776
277.97	3.761
278.47	3.75
278.97	3.718
279.47	3.684
279.98	3.654
280.49	3.625
280.99	3.603
281.5	3.582
282.02	3.563
282.53	3.542
283.05	3.529
283.56	3.51
284.08	3.493
284.6	3.486
285.13	3.473
285.65	3.463
286.18	3.45
286.71	3.442
287.24	3.435
287.77	3.427
288.31	3.418
288.85	3.41
289.38	3.399
289.93	3.388
290.47	3.367
291.01	3.339
291.56	3.31
292.11	3.278
292.66	3.246
293.22	3.214
293.77	3.184
294.33	3.152
294.89	3.12
295.45	3.084
296.01	3.05
296.58	3.016
297.15	2.995
297.72	2.98
298.29	2.971
298.87	2.965
299.44	2.961
300.02	2.954
300.6	2.952
301.19	2.95
301.77	2.946
302.36	2.946
302.95	2.944
303.55	2.937
304.14	2.933
304.74	2.925
305.34	2.92
305.94	2.916
306.55	2.916
307.15	2.916
307.76	2.922
308.38	2.927
308.99	2.935
309.61	2.942
310.23	2.971
310.85	2.997
311.47	3.02
312.1	3.063
312.73	3.105
313.36	3.133
314	3.165
314.63	3.195
315.27	3.218
315.92	3.235
316.56	3.248
317.21	3.259
317.86	3.267
318.51	3.267
319.17	3.267
319.83	3.259
320.49	3.248
321.15	3.227
321.82	3.214
322.49	3.205
323.16	3.201
323.83	3.201
324.51	3.208
325.33	3.22
325.95	3.232
326.64	3.243
327.39	3.257
327.94	3.267
328.64	3.28
329.34	3.301
330.04	3.327
330.74	3.361
331.36	3.403
332.16	3.459
332.87	3.486
333.59	3.512
334.24	3.532
335.03	3.544
335.75	3.544
336.48	3.531
337.21	3.514
337.95	3.482
338.69	3.456
339.43	3.431
340.17	3.412
340.92	3.399
341.51	3.387
342.33	3.374
343.19	3.365
343.95	3.365
344.71	3.365
345.48	3.369
346.25	3.378
347.03	3.395
347.8	3.427
348.59	3.476
349.45	3.524
350.16	3.554
350.95	3.586
351.75	3.614
352.55	3.631
353.35	3.637
354.16	3.631
354.97	3.618
355.83	3.598
356.6	3.578
357.42	3.556
358.25	3.529
359.08	3.501
359.91	3.463
360.75	3.437
361.59	3.41
362.44	3.393
363.29	3.384
364.14	3.378
365	3.376
365.83	3.377
366.72	3.382
367.75	3.394
368.43	3.412
369.26	3.432
370.22	3.461
371.11	3.482
372	3.505
372.9	3.527
373.8	3.55
374.7	3.565
375.56	3.578
376.52	3.586
377.43	3.591
378.36	3.591
379.28	3.584
380.21	3.567
381.15	3.537
382.09	3.484
383.03	3.463
383.96	3.449
384.93	3.437
385.25	3.435
385.57	3.433
385.89	3.429
386.21	3.427
386.53	3.422
386.85	3.408
387.17	3.384
387.5	3.374
387.76	3.369
388.17	3.369
388.47	3.374
388.75	3.381
389.18	3.391
389.49	3.406
389.8	3.417
390.17	3.439
390.53	3.457
390.77	3.474
391.05	3.49
391.41	3.503
391.74	3.518
392.07	3.531
392.4	3.535
392.76	3.54
393.1	3.54
393.39	3.535
393.73	3.525
394.06	3.514
394.4	3.501
394.73	3.499
395.07	3.499
395.4	3.499
395.74	3.499
396.07	3.499
396.41	3.508
396.75	3.518
397.09	3.542
397.43	3.58
397.69	3.591
398.11	3.601
398.45	3.603
398.79	3.603
399.13	3.603
399.54	3.599
399.82	3.595
400.16	3.573
400.51	3.548
400.85	3.52
401.05	3.502
401.25	3.487
401.67	3.445
402.08	3.403
402.63	3.364
403.38	3.304
403.64	3.293
403.99	3.291
404.34	3.288
404.69	3.286
405.04	3.284
405.39	3.282
405.75	3.271
406.1	3.267
406.46	3.261
411.13	2.297
411.49	2.295
411.85	2.259
412.22	2.188
412.59	2.146
412.95	2.08
413.32	2.046
413.69	1.991
