Uv/Vis Spectrum: 9,10-Dihydroanthracene
Formula: C14H12
CAS: 613-31-0
Melting point: 111
Boiling point: 305
Instrument: Unicam SP 500
Origin: INSTITUTE OF ENERGY PROBLEMS OF CHEMICAL PHYSICS, RAS
Wavelength (nm)	Logarithm epsilon
314.884	1.10469
314.785	1.13585
314.685	1.16701
314.584	1.19817
314.483	1.22933
314.38	1.26048
314.277	1.29164
314.173	1.32279
314.069	1.35394
313.964	1.38509
313.858	1.41624
313.751	1.44739
313.644	1.47853
313.536	1.50968
313.427	1.54082
313.318	1.57196
313.208	1.6031
313.097	1.63424
312.986	1.66538
312.874	1.69652
312.762	1.72765
312.648	1.75879
312.535	1.78992
312.42	1.82105
312.305	1.85218
312.19	1.88331
312.073	1.91444
311.957	1.94556
311.839	1.97668
311.721	2.00781
311.603	2.03893
311.484	2.07005
311.364	2.10116
311.244	2.13228
311.123	2.16339
311.002	2.19451
310.881	2.22562
310.759	2.25673
310.636	2.28783
310.513	2.31894
310.389	2.35005
310.265	2.38115
310.14	2.41225
310.015	2.44335
309.89	2.47445
309.764	2.50554
309.638	2.53664
309.511	2.56773
309.384	2.59882
309.256	2.62991
309.128	2.661
309	2.69209
308.871	2.72317
308.741	2.75425
308.612	2.78533
308.482	2.81641
308.351	2.84749
308.221	2.87856
308.09	2.90964
307.958	2.94071
307.827	2.97178
307.695	3.00284
307.562	3.03391
307.429	3.06497
307.296	3.09603
307.163	3.12709
307.029	3.15815
306.896	3.18921
306.761	3.22026
306.627	3.25131
306.492	3.28236
306.492	3.28236
306.174	3.31936
305.856	3.35636
305.54	3.39336
305.223	3.43036
304.908	3.46736
304.908	3.46736
304.642	3.49336
304.351	3.52727
303.861	3.56368
303.002	3.5972
301.611	3.62244
299.535	3.63401
299.535	3.63401
298.052	3.61966
296.946	3.61064
294.906	3.60751
294.906	3.60751
292.238	3.63178
289.637	3.65645
287.289	3.68497
287.289	3.68497
286.369	3.71781
285.536	3.75118
284.777	3.78496
284.08	3.81901
283.432	3.85322
282.82	3.88744
282.233	3.92156
281.659	3.95544
281.087	3.98896
281.087	3.98896
280.65	4.02523
279.651	4.06592
278.314	4.09522
278.314	4.09522
278.185	4.10008
277.946	4.10539
277.817	4.11025
277.817	4.11025
276.379	4.13315
274.99	4.15769
273.35	4.17803
273.35	4.17803
271.017	4.21002
267.918	4.22818
264.689	4.22823
264.689	4.22823
263.765	4.22043
262.823	4.21166
262.017	4.19944
262.017	4.19944
261.564	4.19363
260.376	4.17322
257.476	4.1207
257.476	4.1207
255.256	4.06814
253.528	4.02402
252.68	3.99966
252.68	3.99966
251.849	3.97816
251.145	3.95382
250.453	3.92959
250.453	3.92959
249.512	3.90286
248.793	3.86968
247.791	3.84244
247.791	3.84244
247.484	3.82665
246.918	3.81051
246.613	3.79352
246.613	3.79352
246.327	3.78278
245.702	3.75638
244.842	3.71873
243.847	3.67423
242.817	3.62729
241.847	3.58233
241.031	3.54373
240.459	3.51592
240.222	3.50329
240.222	3.50329
239.889	3.49551
239.383	3.48082
238.69	3.46303
238.69	3.46303
236.912	3.46719
235.862	3.50227
234.973	3.53412
234.973	3.53412
233.583	3.60472
232.925	3.63653
232.628	3.65312
232.628	3.65312
231.795	3.68112
231.166	3.71523
230.344	3.74256
230.344	3.74256
229.792	3.77773
229.263	3.8121
228.729	3.84581
228.162	3.87896
227.535	3.91167
226.822	3.94405
225.998	3.97622
225.998	3.97622
225.648	3.98517
225.366	3.99377
224.966	4.00068
224.966	4.00068
224.54	4.01885
223.829	4.03713
223.365	4.057
223.365	4.057
223.161	4.06239
222.972	4.06868
222.777	4.07407
222.777	4.07407
222.11	4.10871
221.505	4.14361
220.954	4.17873
220.447	4.21399
219.973	4.24937
219.523	4.2848
219.089	4.32024
218.661	4.35564
218.661	4.35564
217.48	4.43753
216.874	4.48043
216.64	4.4984
216.58	4.50547
216.58	4.50547
216.4	4.51111
216.039	4.5304
215.191	4.57988
215.191	4.57988
214.106	4.61337
213.039	4.63368
211.854	4.64438
210.421	4.64904
208.618	4.65122
208.618	4.65122
206.895	4.63457
205.586	4.60545
204.326	4.57147
204.326	4.57147
203.774	4.5496
202.941	4.52105
202.741	4.4991
202.672	4.50001
202.637	4.50167
202.603	4.50547
202.34	4.50547
202.34	4.50547
201.994	4.48916
201.523	4.4737
200.993	4.45655
200.993	4.45655
200.951	4.45451
200.92	4.45953
200.847	4.4624
200.823	4.4503
200.775	4.46521
200.578	4.44003
200.053	4.42036
200.053	4.42036
199.321	4.39102
198.499	4.36262
197.584	4.33612
196.574	4.31249
195.466	4.29269
194.26	4.27771
192.953	4.26849
192.829	4.26747
192.778	4.26747
192.724	4.26747
192.667	4.26747
