Uv/Vis Spectrum: Anthra[9,1-bc]pyran-2,7-dione
Formula: C16H8O3
CAS: 61381-82-6
Melting point: 223
Instrument: Specord UV-Vis
Origin: INSTITUTE OF ENERGY PROBLEMS OF CHEMICAL PHYSICS, RAS
Wavelength (nm)	Logarithm epsilon
302.129	3.573
303.629	3.528
305.129	3.488
306.629	3.454
308.129	3.426
309.629	3.405
311.129	3.39
312.629	3.383
314.129	3.381
315.629	3.384
317.129	3.393
318.629	3.404
320.129	3.418
321.125	3.426
322.625	3.437
324.125	3.447
325.625	3.458
327.125	3.468
328.625	3.479
330.125	3.489
331.625	3.5
333.125	3.51
333.171	3.511
334.671	3.521
336.171	3.537
337.671	3.552
339.171	3.562
340.671	3.562
342.171	3.546
342.927	3.528
343.828	3.506
345.328	3.472
346.828	3.444
348.328	3.42
349.828	3.4
351.328	3.383
352.828	3.368
354.328	3.355
355.828	3.343
357.328	3.333
358.828	3.323
360.328	3.313
361.828	3.303
363.328	3.294
364.828	3.283
366.328	3.273
367.828	3.262
369.328	3.25
370.828	3.238
372.328	3.225
373.828	3.212
375.328	3.198
376.828	3.183
378.328	3.169
379.828	3.154
381.328	3.138
382.828	3.122
384.328	3.106
385.828	3.09
387.328	3.074
388.828	3.058
390.328	3.042
391.828	3.027
393.328	3.011
394.828	2.995
396.328	2.98
397.828	2.964
399.328	2.949
400.828	2.934
402.328	2.919
403.828	2.904
405.328	2.889
405.913	2.884
407.413	2.874
408.913	2.859
410.413	2.842
411.913	2.827
413.413	2.814
414.913	2.806
416.413	2.802
417.913	2.803
419.413	2.81
420.913	2.821
422.413	2.837
423.913	2.856
425.413	2.877
426.913	2.9
428.413	2.924
429.913	2.947
431.413	2.97
432.913	2.991
433.249	2.995
434.749	3.018
436.249	3.039
437.749	3.059
439.249	3.078
440.749	3.097
442.249	3.114
443.749	3.131
445.249	3.148
446.749	3.164
448.249	3.18
449.749	3.196
451.249	3.212
452.749	3.228
454.249	3.245
455.749	3.261
457.249	3.277
458.749	3.293
460.249	3.31
461.749	3.326
463.249	3.343
464.749	3.36
466.249	3.377
467.749	3.394
469.249	3.412
470.749	3.429
472.249	3.446
473.749	3.464
475.249	3.481
476.749	3.498
478.249	3.516
479.749	3.533
481.249	3.551
482.749	3.568
484.249	3.585
485.749	3.602
487.249	3.619
488.749	3.636
490.249	3.653
491.749	3.67
493.249	3.687
494.749	3.703
496.249	3.72
497.749	3.737
499.249	3.753
500.749	3.77
502.249	3.786
502.748	3.791
504.248	3.804
505.748	3.816
507.248	3.827
508.748	3.838
510.248	3.849
511.748	3.859
513.248	3.869
514.748	3.878
516.248	3.888
517.748	3.897
519.248	3.906
520.748	3.914
522.248	3.922
523.748	3.929
525.248	3.936
526.748	3.941
528.248	3.945
529.748	3.947
531.248	3.948
532.748	3.947
534.248	3.943
535.644	3.937
537.144	3.935
538.644	3.933
540.144	3.932
541.644	3.933
543.144	3.936
544.644	3.941
546.144	3.948
547.644	3.956
549.144	3.964
549.461	3.966
550.961	3.967
552.461	3.977
553.961	3.988
555.461	3.995
556.961	3.998
558.461	3.997
559.961	3.992
561.461	3.986
562.961	3.977
564.461	3.964
565.961	3.941
566.468	3.928
567.968	3.901
569.468	3.87
570.968	3.837
572.468	3.803
573.968	3.77
575.468	3.738
576.968	3.709
578.468	3.683
579.968	3.659
581.468	3.64
582.968	3.623
584.468	3.61
585.968	3.599
587.468	3.591
588.968	3.586
590.468	3.581
591.968	3.578
593.468	3.575
594.968	3.572
596.468	3.569
597.968	3.563
599.468	3.556
600.968	3.547
602.468	3.535
603.968	3.52
605.468	3.502
606.968	3.481
608.468	3.458
609.968	3.432
611.468	3.405
612.968	3.377
613.019	3.376
614.519	3.353
616.019	3.33
617.519	3.307
619.019	3.283
620.519	3.259
622.019	3.236
623.519	3.213
625.019	3.19
626.519	3.168
628.019	3.146
629.519	3.125
631.019	3.103
632.519	3.082
634.019	3.061
635.519	3.04
637.019	3.018
638.519	2.996
640.019	2.973
641.519	2.949
643.019	2.924
644.519	2.898
646.019	2.87
647.519	2.841
649.019	2.809
