Uv/Vis Spectrum: 2-acetyl-2,3,4,5-tetrahydro-5-methyl-1-phenyl-1H-pyridazino[4,5-b]indole
Formula: C19H19N3O
CAS: 61381-52-0
Melting point: 218
Instrument: SF-16
Origin: INSTITUTE OF ENERGY PROBLEMS OF CHEMICAL PHYSICS, RAS
Wavelength (nm)	Logarithm epsilon
254.682	3.829
256.836	3.842
258.906	3.86
260.906	3.881
262.906	3.899
264.906	3.915
266.906	3.935
268.906	3.959
270.906	3.989
272.906	4.021
274.784	4.053
275.915	4.065
276.806	4.069
277.936	4.067
278.906	4.058
280.906	4.03
282.906	3.986
284.906	3.949
287.219	3.905
289.147	3.865
290.734	3.828
292.321	3.792
293.858	3.76
296.47	3.708
299.081	3.661
301.693	3.622
304.305	3.592
306.917	3.562
309.679	3.53
312.14	3.51
314.752	3.493
317.202	3.479
320.009	3.465
322.587	3.454
325.199	3.446
