Uv/Vis Spectrum: 3-Chloroanthra[9,1-bc]pyran-2,7-dione
Formula: C16H7ClO3
CAS: 61381-86-0
Melting point: 235
Instrument: Specord UV-Vis
Origin: INSTITUTE OF ENERGY PROBLEMS OF CHEMICAL PHYSICS, RAS
Wavelength (nm)	Logarithm epsilon
306.54	3.631
308.04	3.595
309.54	3.557
311.04	3.52
312.54	3.483
314.04	3.448
315.54	3.415
317.04	3.386
318.54	3.36
320.04	3.339
321.54	3.323
323.04	3.313
324.54	3.308
326.04	3.31
327.54	3.318
329.04	3.333
330.418	3.352
330.722	3.356
332.222	3.38
333.722	3.405
335.222	3.43
336.722	3.454
338.222	3.477
339.722	3.496
341.222	3.512
342.722	3.525
344.222	3.534
345.722	3.539
347.222	3.541
348.722	3.539
350.222	3.535
351.722	3.528
353.222	3.519
354.722	3.507
356.222	3.495
357.722	3.482
359.222	3.468
359.468	3.465
360.968	3.454
362.468	3.444
363.968	3.433
365.468	3.422
366.968	3.41
368.468	3.398
369.968	3.385
371.468	3.372
372.968	3.359
374.468	3.346
375.968	3.331
377.468	3.317
378.968	3.302
380.468	3.287
381.968	3.271
383.468	3.255
384.968	3.239
386.468	3.222
387.968	3.205
389.468	3.187
390.968	3.169
392.468	3.151
393.968	3.132
395.468	3.113
396.968	3.093
398.468	3.073
399.968	3.053
401.468	3.032
402.968	3.011
404.468	2.99
405.968	2.968
407.468	2.945
408.968	2.923
410.468	2.899
411.939	2.876
413.439	2.854
414.939	2.835
416.439	2.82
417.939	2.809
419.439	2.803
420.939	2.802
422.439	2.805
423.939	2.812
425.439	2.822
426.939	2.834
426.996	2.835
428.496	2.844
429.996	2.852
431.496	2.861
432.996	2.871
434.496	2.88
435.996	2.89
437.496	2.901
438.996	2.911
440.496	2.922
441.996	2.934
443.496	2.945
444.996	2.957
446.496	2.97
447.996	2.982
449.496	2.995
450.996	3.008
453.078	3.031
454.578	3.048
456.078	3.066
457.578	3.084
459.078	3.103
460.578	3.123
462.078	3.143
463.578	3.164
465.078	3.185
466.578	3.207
468.078	3.229
469.578	3.251
471.078	3.273
472.578	3.296
474.078	3.319
475.578	3.342
477.078	3.365
478.578	3.388
480.078	3.411
481.578	3.434
483.078	3.456
484.578	3.479
486.078	3.501
487.578	3.523
489.078	3.545
490.578	3.566
492.078	3.587
493.578	3.608
495.078	3.628
496.578	3.647
498.078	3.666
499.578	3.685
501.078	3.703
502.578	3.72
504.078	3.737
505.578	3.753
507.078	3.769
508.578	3.784
510.078	3.799
511.578	3.812
513.078	3.826
514.578	3.838
516.078	3.85
517.578	3.862
519.078	3.873
520.578	3.883
522.078	3.893
523.578	3.903
526.616	3.918
528.745	3.93
530.57	3.938
532.7	3.941
535.741	3.934
538.783	3.926
541.825	3.926
543.463	3.93
545.171	3.935
546.563	3.941
548.175	3.948
549.787	3.955
551.275	3.96
552.671	3.965
554.171	3.969
555.671	3.973
557.171	3.978
558.671	3.984
560.171	3.991
561.671	3.999
563.18	4.007
564.671	4.016
566.171	4.025
567.671	4.034
569.171	4.043
570.671	4.051
572.171	4.058
573.671	4.064
575.171	4.068
576.671	4.069
578.171	4.069
579.671	4.066
581.171	4.06
582.671	4.051
584.171	4.039
585.671	4.024
587.12	4.004
588.62	3.992
590.12	3.98
591.62	3.967
593.12	3.954
594.62	3.941
596.12	3.929
597.62	3.918
599.12	3.908
600.62	3.898
602.12	3.888
603.62	3.879
605.12	3.87
606.62	3.861
608.12	3.852
609.62	3.843
611.12	3.834
612.62	3.825
614.12	3.817
615.62	3.809
617.12	3.804
618.62	3.801
620.12	3.803
621.62	3.809
622.987	3.821
624.487	3.837
625.987	3.851
627.487	3.859
628.987	3.858
630.487	3.843
632.094	3.806
633.594	3.758
635.094	3.705
636.594	3.65
638.094	3.595
639.594	3.542
641.094	3.489
642.594	3.437
644.094	3.383
645.594	3.324
647.094	3.257
