Uv/Vis Spectrum: 4-methylthiacyclohexane-3,5-dione
Formula: C6H8O2S
CAS: 61363-53-9
Melting point: 132.5-133
Instrument: Hitachi EPS-3T
Origin: INSTITUTE OF ENERGY PROBLEMS OF CHEMICAL PHYSICS, RAS
Wavelength (nm)	Logarithm epsilon
225.714	3.183
226.714	3.207
227.714	3.236
228.714	3.268
229.714	3.302
230.714	3.338
231.714	3.375
232.714	3.412
233.714	3.449
234.714	3.486
235.714	3.521
236.714	3.555
237.714	3.588
238.714	3.62
239.714	3.65
240.714	3.679
241.714	3.706
242.714	3.732
243.714	3.756
244.714	3.779
245.714	3.801
246.714	3.821
247.714	3.84
248.714	3.858
249.714	3.875
250.714	3.89
251.714	3.905
252.714	3.918
253.714	3.93
254.714	3.942
255.714	3.952
256.714	3.962
257.714	3.97
258.714	3.978
259.714	3.985
260.714	3.991
261.714	3.996
262.714	4
263.714	4.004
264.714	4.006
265.714	4.008
266.714	4.009
267.714	4.009
268.714	4.008
269.714	4.006
270.714	4.004
271.714	4
272.714	3.994
273.714	3.988
274.714	3.98
275.714	3.971
276.714	3.96
277.714	3.947
278.714	3.932
279.713	3.916
280.713	3.899
281.713	3.88
282.713	3.858
283.713	3.833
284.713	3.806
285.713	3.777
286.713	3.746
287.713	3.714
288.713	3.681
289.713	3.646
290.713	3.611
291.713	3.575
292.713	3.539
293.713	3.504
294.713	3.469
295.713	3.436
296.713	3.404
297.713	3.375
298.713	3.348
299.713	3.323
300.713	3.302
301.713	3.284
302.713	3.27
303.713	3.259
304.713	3.25
305.713	3.244
306.713	3.24
307.713	3.238
308.713	3.237
309.713	3.236
310.713	3.236
311.713	3.236
312.713	3.235
313.713	3.233
314.713	3.23
315.713	3.225
316.713	3.219
317.713	3.212
318.713	3.202
319.713	3.19
320.713	3.176
321.713	3.161
322.713	3.143
323.713	3.123
324.713	3.103
325.713	3.081
326.713	3.059
327.713	3.038
328.713	3.019
