Uv/Vis Spectrum: 2-Aminoanthracene
Formula: C14H11N
CAS: 613-13-8
Melting point: 238.8
Boiling point: sub
Instrument: n.i.g.
Origin: INSTITUTE OF ENERGY PROBLEMS OF CHEMICAL PHYSICS, RAS
Wavelength (nm)	Logarithm epsilon
242.066	4.62695
242.388	4.62127
244.351	4.5889
244.79	4.58212
246.669	4.56799
249.294	4.57856
250.082	4.59465
250.535	4.59456
250.761	4.59452
251.423	4.61123
253.707	4.64667
253.812	4.65026
255.293	4.68063
255.507	4.68642
256.688	4.71628
256.807	4.72368
257.755	4.75002
257.769	4.75693
258.834	4.78937
259.077	4.79723
260.94	4.82454
260.949	4.82916
262.639	4.83442
263.085	4.83103
264.899	4.8
264.986	4.79436
267.266	4.77304
267.355	4.76686
269.488	4.73411
269.68	4.72846
271.101	4.69949
271.632	4.6894
273.688	4.65116
273.874	4.64221
275.604	4.60626
275.696	4.60295
276.894	4.57204
277.206	4.56636
280.423	4.49285
280.611	4.4849
282.688	4.44458
283.176	4.43237
284.28	4.39975
284.811	4.38941
286.176	4.34464
286.488	4.33895
287.776	4.30343
288.079	4.29313
289.012	4.24152
289.025	4.24843
289.959	4.21396
290.361	4.20389
291.856	4.15918
291.938	4.15125
292.77	4.11448
292.979	4.10521
293.684	4.06979
293.901	4.06437
294.927	4.01151
294.945	4.02074
295.841	3.96681
295.856	3.97397
296.683	3.88488
296.758	3.92344
296.776	3.93266
297.12	3.87688
298.846	3.7852
298.86	3.79211
299.445	3.74419
299.635	3.73746
300.353	3.6962
300.538	3.68693
301.254	3.64492
301.688	3.6356
302.833	3.59316
303.014	3.58182
304.069	3.53159
304.078	3.5361
304.635	3.49026
305.072	3.48226
306.859	3.42156
306.873	3.42847
307.787	3.38379
308.211	3.3691
308.688	3.3325
308.894	3.32115
309.628	3.2845
309.81	3.27316
310.194	3.24317
310.701	3.22969
313.55	3.24084
313.789	3.24663
315.669	3.28327
315.691	3.29447
316.923	3.32917
317.275	3.34392
319.164	3.36795
319.921	3.36672
323.385	3.29521
323.403	3.30444
325.101	3.31365
325.336	3.31722
326.364	3.34768
326.477	3.35557
327.634	3.40216
329.057	3.45154
331.194	3.50363
331.413	3.51182
332.971	3.55305
333.424	3.55296
335.309	3.54203
335.49	3.53078
336.443	3.50078
336.567	3.50781
336.859	3.47544
336.909	3.47939
336.973	3.48333
337.01	3.47014
337.044	3.48727
337.944	3.45546
338.738	3.41176
338.923	3.40249
340.344	3.37385
340.521	3.36028
341.93	3.32572
342.114	3.31696
343.536	3.2878
343.946	3.2821
346.349	3.27173
346.706	3.28419
347.451	3.32294
347.578	3.33774
348.756	3.37872
348.783	3.39256
349.872	3.43685
350.602	3.49307
354.427	3.53483
354.751	3.51811
355.224	3.51258
355.24	3.52115
355.296	3.46882
355.428	3.53463
356.24	3.43776
356.262	3.44906
356.841	3.39784
357.024	3.38757
357.748	3.34985
357.817	3.33499
358.656	3.30186
358.969	3.29157
359.906	3.24688
359.919	3.25379
361.17	3.21596
361.26	3.2082
363.69	3.21544
364.254	3.22224
366.778	3.25734
367.126	3.26519
370.231	3.30444
370.367	3.30803
373.506	3.34301
374.189	3.35662
377.968	3.39353
377.977	3.39805
380.723	3.43056
381.393	3.43882
385.701	3.48064
386.038	3.48287
390.106	3.50216
390.888	3.5053
394.188	3.52342
394.972	3.52778
398.744	3.53963
400.07	3.53936
404.12	3.54513
404.775	3.545
407.81	3.548
408.584	3.54386
412.822	3.53313
413.478	3.533
416.465	3.51195
419.542	3.4931
422.412	3.46293
423.259	3.45912
428.009	3.40014
428.647	3.39109
431.282	3.35529
431.918	3.34493
433.863	3.30333
434.389	3.29101
436.114	3.24847
436.645	3.23813
438.36	3.2068
438.57	3.19784
440.301	3.1586
440.482	3.14725
442.204	3.10711
442.636	3.09679
444.461	3.05522
444.647	3.04626
446.733	3.01057
446.914	2.99923
448.635	2.95875
449.061	2.94514
450.235	2.91755
450.416	2.9062
