Uv/Vis Spectrum: Anthracene, 2-methyl-
Formula: C15H12
CAS: 613-12-7
Melting point: 209
Boiling point: sub
Instrument: n.i.g.
Origin: INSTITUTE OF ENERGY PROBLEMS OF CHEMICAL PHYSICS, RAS
Wavelength (nm)	Logarithm epsilon
230	4.13
231	4.18
232	4.29
233	4.35
234	4.43
235	4.48
236	4.56
237	4.6
238	4.65
239	4.69
240	4.76
241	4.8
242	4.86
243	4.9
244	4.95
245	4.97
246	5.04
247	5.07
248	5.14
249	5.17
250	5.2
251	5.19
252	5.2
253	5.2
254	5.21
255	5.19
256	4.92
257	4.74
258	4.66
259	4.56
260	4.43
261	4.35
262	4.25
263	4.11
264	3.78
265	3.69
266	3.61
267	3.56
268	3.52
269	3.48
270	3.45
271	3.41
272	3.39
273	3.36
274	3.32
275	3.29
276	3.25
277	3.16
278	3.12
279	3.06
280	3.04
281	3
282	2.94
283	2.92
284	2.86
285	2.84
286	2.83
287	2.83
288	2.83
289	2.83
290	2.85
291	2.86
292	2.88
293	2.89
294	2.89
295	2.89
296	2.88
297	2.88
298	2.88
299	2.88
300	2.88
301	2.92
302	2.94
303	2.95
304	2.96
305	2.99
306	3
307	3.03
308	3.06
309	3.08
310	3.1
311	3.12
312	3.15
313	3.16
314	3.19
315	3.21
316	3.24
317	3.26
318	3.29
319	3.31
320	3.34
321	3.35
322	3.38
323	3.41
324	3.43
325	3.46
326	3.47
327	3.49
328	3.5
329	3.51
330	3.52
331	3.53
332	3.54
333	3.56
334	3.58
335	3.6
336	3.62
337	3.63
338	3.65
339	3.65
340	3.66
341	3.65
342	3.63
343	3.63
344	3.64
345	3.64
346	3.66
347	3.68
348	3.7
349	3.71
350	3.73
351	3.77
352	3.77
353	3.78
354	3.77
355	3.75
356	3.71
357	3.65
358	3.62
359	3.57
360	3.54
361	3.51
362	3.48
363	3.46
364	3.45
365	3.45
366	3.46
367	3.46
368	3.46
369	3.49
370	3.52
371	3.55
372	3.6
373	3.62
374	3.67
375	3.68
376	3.69
377	3.69
378	3.68
379	3.6
