Uv/Vis Spectrum: Ethanone, 1-phenyl-, oxime
Formula: C8H9NO
CAS: 613-91-2
Melting point: 60
Instrument: Beckman DU
Origin: INSTITUTE OF ENERGY PROBLEMS OF CHEMICAL PHYSICS, RAS
Wavelength (nm)	Logarithm epsilon
211.49	4.164
212	4.137
212.51	4.11
213.18	4.082
213.69	4.055
214.2	4.028
214.88	4.001
215.72	3.974
216.23	3.946
216.9	3.919
217.41	3.892
218.09	3.865
218.59	3.838
219.1	3.81
219.78	3.783
220.45	3.756
221.3	3.732
222.31	3.708
223.83	3.708
225.02	3.729
225.86	3.753
226.88	3.776
227.72	3.804
228.74	3.827
229.58	3.855
230.6	3.875
231.44	3.899
232.45	3.923
233.64	3.943
234.82	3.96
236	3.98
237.02	4.001
238.37	4.018
239.72	4.028
241.08	4.042
242.43	4.052
243.95	4.055
245.47	4.052
246.99	4.042
248.51	4.038
249.87	4.025
251.22	4.011
252.57	3.994
253.92	3.977
255.11	3.957
255.95	3.933
257.13	3.912
258.15	3.889
258.99	3.865
260.01	3.841
260.85	3.814
261.7	3.79
262.54	3.763
263.39	3.739
264.06	3.712
265.08	3.688
265.59	3.661
266.43	3.637
266.94	3.61
267.61	3.583
268.29	3.555
268.8	3.528
269.47	3.501
269.98	3.471
270.49	3.443
271.16	3.416
271.67	3.386
272.18	3.358
272.69	3.331
273.19	3.304
273.87	3.277
274.38	3.25
274.88	3.222
275.39	3.195
275.9	3.168
276.4	3.137
276.91	3.107
277.42	3.08
277.93	3.049
278.43	3.022
278.94	2.995
279.45	2.964
279.79	2.933
280.46	2.906
280.97	2.876
281.31	2.845
281.81	2.818
282.32	2.791
282.66	2.76
283.17	2.733
283.67	2.702
284.01	2.672
284.52	2.645
285.19	2.617
285.53	2.587
286.04	2.56
286.55	2.532
286.88	2.502
287.39	2.475
287.73	2.444
288.24	2.413
288.58	2.383
289.08	2.356
289.42	2.325
289.93	2.295
290.27	2.264
290.6	2.233
290.94	2.203
291.28	2.172
291.62	2.142
291.96	2.111
292.12	2.08
292.46	2.05
292.8	2.019
292.97	1.989
293.31	1.958
293.65	1.927
293.98	1.897
294.15	1.866
294.49	1.836
294.66	1.805
295	1.774
295.17	1.744
295.34	1.713
295.67	1.683
295.84	1.652
296.18	1.622
296.35	1.591
296.69	1.56
296.86	1.53
297.2	1.499
297.36	1.469
297.53	1.438
297.87	1.407
298.21	1.377
