Uv/Vis Spectrum: 4,4'-Dimethylbiphenyl
Formula: C14H14
CAS: 613-33-2
Melting point: 129
Boiling point: 295
Instrument: Beckman DU
Origin: INSTITUTE OF ENERGY PROBLEMS OF CHEMICAL PHYSICS, RAS
Wavelength (nm)	Logarithm epsilon
214.743	4.33079
214.824	4.32648
214.955	4.32537
214.955	4.32537
214.986	4.32108
215.041	4.31607
215.114	4.31058
215.202	4.30487
215.298	4.29918
215.397	4.29381
215.495	4.28905
215.587	4.28519
215.667	4.28256
215.73	4.28145
215.73	4.28145
215.811	4.27713
215.892	4.27276
215.973	4.26834
216.054	4.26388
216.136	4.25937
216.219	4.25481
216.301	4.2502
216.384	4.24554
216.467	4.24083
216.55	4.23606
216.634	4.23124
216.718	4.22636
216.802	4.22142
216.886	4.21643
216.97	4.21138
217.054	4.20627
217.138	4.20109
217.223	4.19585
217.308	4.19055
217.392	4.18518
217.477	4.17974
217.561	4.17423
217.646	4.16865
217.73	4.16299
217.815	4.15726
217.899	4.15145
217.983	4.14557
218.067	4.1396
218.151	4.13354
218.234	4.1274
218.318	4.12118
218.401	4.11486
218.484	4.10844
218.566	4.10193
218.649	4.09532
218.731	4.08861
218.812	4.08179
218.894	4.07487
218.975	4.06783
219.055	4.06068
219.135	4.0534
219.215	4.04601
219.294	4.03848
219.373	4.03083
219.451	4.02303
219.529	4.0151
219.606	4.00702
219.682	3.99878
219.758	3.99039
219.833	3.98183
219.908	3.97311
219.982	3.9642
220.055	3.95511
220.128	3.94583
220.2	3.93635
220.271	3.92665
220.341	3.91674
220.411	3.9066
220.411	3.9066
220.618	3.89875
220.921	3.88247
221.238	3.86464
221.49	3.85319
221.49	3.85319
221.663	3.84342
221.852	3.83238
222.059	3.82018
222.287	3.80696
222.539	3.79285
222.817	3.778
223.125	3.76259
223.464	3.74683
223.839	3.73096
224.25	3.71525
224.702	3.70002
225.197	3.68562
225.737	3.67246
226.326	3.66096
226.326	3.66096
226.802	3.66151
227.281	3.66198
227.768	3.66231
227.768	3.66231
228.423	3.67743
229.036	3.6929
229.609	3.70854
230.147	3.72419
230.651	3.73973
231.127	3.75504
231.577	3.77001
232.004	3.78457
232.412	3.79863
232.805	3.81214
233.185	3.82503
233.555	3.83727
233.555	3.83727
233.844	3.84909
234.131	3.86061
234.417	3.87186
234.7	3.88284
234.981	3.89357
235.261	3.90405
235.539	3.9143
235.815	3.92432
236.089	3.93412
236.362	3.94372
236.633	3.95312
236.902	3.96232
237.169	3.97133
237.435	3.98016
237.699	3.98882
237.961	3.99731
238.222	4.00563
238.481	4.01379
238.738	4.0218
238.994	4.02966
239.248	4.03737
239.501	4.04494
239.752	4.05238
240.001	4.05968
240.249	4.06685
240.495	4.07389
240.74	4.08081
240.983	4.0876
240.983	4.0876
241.336	4.09631
241.748	4.10801
242.044	4.11444
242.044	4.11444
242.395	4.12449
242.719	4.13319
243.017	4.14079
243.293	4.14749
243.551	4.1535
243.792	4.159
244.021	4.16416
244.241	4.16915
244.453	4.17414
244.663	4.17925
244.663	4.17925
244.845	4.18181
245.044	4.18592
245.282	4.18935
245.282	4.18935
245.459	4.19476
245.643	4.20012
245.834	4.20541
246.034	4.21065
246.242	4.21582
246.459	4.22093
246.685	4.22598
246.919	4.23096
247.164	4.23588
247.417	4.24072
247.681	4.2455
247.955	4.25021
248.239	4.25484
248.534	4.25941
248.839	4.2639
249.156	4.26831
249.484	4.27266
249.824	4.27692
250.176	4.28111
250.54	4.28523
250.916	4.28927
251.305	4.29322
251.305	4.29322
251.845	4.29682
252.371	4.30023
252.899	4.30332
253.443	4.30599
254.018	4.30811
254.639	4.30956
255.321	4.31022
256.079	4.30998
256.927	4.3087
257.882	4.30625
257.882	4.30625
258.659	4.30065
259.44	4.29495
260.228	4.28915
260.228	4.28915
260.398	4.28679
260.597	4.28423
260.826	4.28137
261.089	4.27816
261.387	4.27451
261.723	4.27034
262.1	4.26558
262.52	4.26011
262.986	4.25386
263.499	4.24671
264.063	4.23855
264.063	4.23855
264.171	4.23597
264.271	4.23362
264.37	4.23135
264.478	4.22902
264.6	4.22652
264.744	4.22368
264.918	4.22037
265.13	4.21644
265.387	4.21172
265.696	4.20605
266.065	4.19925
266.502	4.19111
267.014	4.1814
267.608	4.16987
268.293	4.15621
268.293	4.15621
268.497	4.15053
268.715	4.14474
268.945	4.13883
269.188	4.13282
269.442	4.12671
269.705	4.12048
269.978	4.11415
270.258	4.10772
270.545	4.10118
270.839	4.09453
271.137	4.08779
271.439	4.08094
271.744	4.074
272.051	4.06696
272.359	4.05982
272.667	4.0526
272.974	4.04528
273.28	4.03787
273.582	4.03037
273.88	4.02279
274.173	4.01513
274.173	4.01513
274.432	4.00673
274.708	3.99812
274.998	3.9893
275.296	3.98025
275.599	3.97096
275.902	3.96144
276.201	3.95167
276.49	3.94164
276.766	3.93134
277.024	3.92076
277.26	3.90989
277.47	3.89872
277.648	3.88724
277.79	3.87542
277.892	3.86326
277.892	3.86326
278.007	3.86325
278.122	3.86324
278.236	3.86323
278.236	3.86323
278.495	3.85197
278.764	3.84044
279.04	3.82862
279.325	3.81649
279.617	3.80404
279.917	3.79126
280.223	3.7781
280.536	3.76456
280.856	3.7506
281.181	3.7362
281.511	3.72132
281.846	3.70593
282.186	3.68999
282.53	3.67346
282.878	3.65628
283.229	3.6384
283.583	3.61976
283.94	3.60028
284.299	3.57989
284.66	3.55849
285.022	3.53598
285.385	3.51222
285.749	3.48707
286.113	3.46036
286.476	3.43186
286.839	3.40134
287.202	3.36846
287.562	3.33284
287.562	3.33284
288.079	3.29398
288.609	3.25087
289.161	3.20297
289.742	3.14958
290.361	3.0898
291.025	3.02242
291.743	2.94578
292.521	2.8575
293.369	2.75402
293.369	2.75402
294.587	2.62176
295.889	2.42968
297.115	2.1149
