Uv/Vis Spectrum: tert-Butyl peroxybenzoate
Formula: C11H14O3
CAS: 614-45-9
Melting point: 25.5
Boiling point: 75-77/ 2 mm
Instrument: SF-4
Origin: INSTITUTE OF ENERGY PROBLEMS OF CHEMICAL PHYSICS, RAS
Wavelength (nm)	Logarithm epsilon
220.34	4.05
220.51	4.052
220.67	4.055
220.86	4.058
221.03	4.061
221.54	4.072
222.73	4.095
223.93	4.116
225.13	4.137
226.32	4.158
227.52	4.177
228.72	4.193
229.91	4.205
231.11	4.21
232.31	4.209
233.5	4.201
234.7	4.187
235.9	4.165
237.09	4.137
238.29	4.11
239.49	4.078
240.68	4.044
241.88	3.998
243.08	3.952
244.27	3.906
245.47	3.84
246.67	3.779
247.86	3.716
248.94	3.654
250.25	3.578
251.45	3.501
252.65	3.434
253.84	3.361
255.04	3.288
256.24	3.226
257.43	3.172
258.63	3.122
