Uv/Vis Spectrum: Benzalacetophenone
Formula: C15H12O
CAS: 614-47-1
Melting point: 62
Instrument: Beckman Model DU
Origin: INSTITUTE OF ENERGY PROBLEMS OF CHEMICAL PHYSICS, RAS
Wavelength (nm)	Logarithm epsilon
217.81	4.022
219	4.039
220.19	4.056
221.37	4.073
222.73	4.087
224.26	4.087
225.78	4.083
227.31	4.073
228.67	4.06
229.86	4.042
231.04	4.022
232.23	4.002
233.08	3.978
234.1	3.954
234.95	3.93
235.79	3.903
236.47	3.875
237.32	3.852
238	3.824
239.19	3.804
240.71	3.797
242.24	3.801
243.6	3.814
244.95	3.824
246.31	3.838
247.67	3.855
249.03	3.869
250.38	3.882
251.91	3.893
253.27	3.906
254.62	3.92
255.98	3.933
257.51	3.944
258.86	3.957
260.22	3.971
261.41	3.988
262.77	4.005
264.12	4.019
265.48	4.036
266.84	4.049
268.19	4.06
269.55	4.073
270.91	4.09
272.27	4.107
273.62	4.124
274.81	4.141
276.17	4.158
277.52	4.175
278.71	4.192
279.9	4.209
281.09	4.226
282.44	4.24
283.63	4.257
284.99	4.271
286.35	4.284
287.87	4.295
289.23	4.305
290.76	4.308
292.11	4.318
293.64	4.322
295.17	4.322
296.69	4.322
298.22	4.322
299.75	4.322
301.27	4.318
302.8	4.312
304.33	4.305
305.85	4.295
307.38	4.288
308.74	4.274
310.09	4.257
311.45	4.244
312.64	4.226
314	4.209
315.18	4.192
316.37	4.172
317.56	4.155
318.58	4.134
319.42	4.111
320.44	4.087
321.12	4.06
321.97	4.036
322.65	4.008
323.33	3.981
323.83	3.954
324.34	3.927
324.85	3.899
325.36	3.872
325.7	3.841
326.21	3.814
326.55	3.783
326.89	3.753
327.23	3.722
327.57	3.691
327.91	3.661
328.25	3.63
328.58	3.599
328.75	3.569
329.09	3.538
329.43	3.507
329.6	3.477
329.77	3.446
330.11	3.415
330.28	3.385
330.62	3.354
330.79	3.323
330.96	3.293
331.3	3.262
331.64	3.231
331.98	3.201
332.15	3.17
332.32	3.139
332.66	3.109
333	3.078
333.33	3.047
333.5	3.017
333.84	2.986
334.18	2.955
334.52	2.925
334.86	2.894
335.2	2.863
335.71	2.836
335.88	2.806
336.39	2.778
336.73	2.748
337.24	2.717
337.58	2.686
338.08	2.659
338.59	2.632
339.27	2.604
339.78	2.577
340.46	2.55
340.97	2.523
341.99	2.499
343.17	2.478
344.53	2.461
345.89	2.448
347.41	2.444
348.94	2.444
350.47	2.448
351.99	2.448
353.52	2.448
355.05	2.448
356.57	2.444
358.1	2.444
359.63	2.444
361.16	2.437
362.68	2.434
364.21	2.431
365.74	2.427
367.26	2.424
368.79	2.414
370.32	2.41
371.84	2.4
373.37	2.397
374.9	2.39
376.42	2.38
377.78	2.366
379.31	2.359
380.66	2.345
382.02	2.332
383.38	2.322
384.73	2.308
386.09	2.291
387.45	2.277
388.64	2.26
389.99	2.243
391.18	2.223
392.37	2.206
393.56	2.185
394.57	2.161
395.76	2.141
396.95	2.121
397.97	2.1
398.98	2.076
400	2.056
401.02	2.035
402.04	2.015
402.89	1.991
404.07	1.971
404.92	1.947
405.94	1.923
406.96	1.903
407.81	1.879
408.82	1.855
409.84	1.834
410.69	1.807
411.71	1.787
412.56	1.763
413.57	1.739
414.42	1.715
415.27	1.691
416.29	1.671
416.97	1.644
417.98	1.62
418.83	1.592
419.68	1.569
420.36	1.541
421.21	1.517
421.89	1.49
422.56	1.463
423.24	1.436
423.75	1.408
424.43	1.381
425.11	1.354
425.62	1.323
426.13	1.296
426.63	1.269
