Uv/Vis Spectrum: 3-(4-chlorophenyl)-2,3-dihydro-3-hydroxy-2-(1-methylethyl)-1H-isoindol-1-one
Formula: C17H16ClNO2
CAS: 61430-63-5
Melting point: 161-163
Instrument: Specord UV-Vis
Origin: INSTITUTE OF ENERGY PROBLEMS OF CHEMICAL PHYSICS, RAS
Wavelength (nm)	Logarithm epsilon
218.988	4.247
219.389	4.245
220.889	4.234
222.389	4.215
223.889	4.199
225.389	4.189
226.889	4.187
228.389	4.193
229.889	4.203
231.389	4.217
232.889	4.232
234.389	4.247
235.889	4.261
237.389	4.273
238.889	4.285
240.389	4.296
241.889	4.304
243.389	4.305
244.889	4.291
246.284	4.255
247.784	4.154
249.284	4.005
250.784	3.841
252.284	3.681
253.784	3.533
255.284	3.4
256.784	3.278
258.284	3.165
259.784	3.056
261.284	2.952
262.784	2.854
264.284	2.764
265.784	2.686
267.284	2.621
268.784	2.564
270.284	2.501
270.368	2.499
271.868	2.449
273.368	2.402
274.868	2.364
276.368	2.334
277.868	2.315
279.368	2.305
280.868	2.306
282.368	2.315
283.868	2.332
285.368	2.356
286.868	2.385
288.368	2.419
289.868	2.456
291.368	2.497
292.868	2.541
294.368	2.586
295.868	2.634
297.368	2.684
298.868	2.735
300.368	2.786
300.474	2.788
301.974	2.84
303.474	2.891
304.974	2.944
306.474	2.999
307.974	3.056
309.474	3.114
310.974	3.174
312.474	3.233
313.974	3.291
315.474	3.349
316.974	3.404
318.474	3.457
319.974	3.506
321.474	3.553
322.974	3.596
324.474	3.637
325.974	3.675
327.474	3.71
328.974	3.743
330.474	3.774
331.974	3.803
333.474	3.83
333.792	3.837
335.292	3.854
336.792	3.872
338.292	3.891
339.792	3.91
341.292	3.93
342.792	3.948
344.292	3.967
345.792	3.984
347.292	4.001
348.792	4.017
350.292	4.032
351.792	4.046
353.292	4.059
354.792	4.071
356.292	4.082
357.792	4.092
359.292	4.101
360.792	4.109
362.292	4.116
363.792	4.123
365.292	4.129
366.792	4.134
368.292	4.138
369.792	4.142
371.292	4.146
372.792	4.149
374.292	4.151
375.792	4.154
377.292	4.155
378.792	4.157
380.292	4.158
381.792	4.159
383.292	4.159
384.792	4.159
386.292	4.158
387.792	4.157
389.292	4.155
390.792	4.153
392.292	4.15
393.792	4.146
395.292	4.141
396.792	4.135
398.292	4.128
399.792	4.121
401.292	4.111
402.792	4.101
404.292	4.089
405.792	4.076
407.292	4.062
408.792	4.046
410.292	4.029
411.792	4.011
413.292	3.991
414.792	3.97
416.292	3.949
417.687	3.932
419.187	3.902
420.687	3.877
422.187	3.853
423.687	3.83
425.187	3.807
426.687	3.783
428.187	3.757
429.687	3.73
431.187	3.701
432.687	3.671
434.187	3.639
435.687	3.606
437.187	3.572
438.687	3.538
440.187	3.503
441.687	3.468
443.187	3.434
444.687	3.399
446.187	3.365
447.687	3.331
449.187	3.297
450.687	3.263
452.187	3.228
453.687	3.192
455.187	3.155
456.687	3.116
458.187	3.075
459.687	3.031
461.187	2.985
462.687	2.936
464.187	2.884
465.687	2.829
467.187	2.773
468.687	2.716
470.187	2.661
471.687	2.609
473.187	2.563
474.687	2.527
