Uv/Vis Spectrum: O-Bromoaniline
Formula: C6H6BrN
CAS: 615-36-1
Melting point: 29.5-31
Instrument: Unicam SP 800
Origin: INSTITUTE OF ENERGY PROBLEMS OF CHEMICAL PHYSICS, RAS
Wavelength (nm)	Logarithm epsilon
203.03	4.532
204.04	4.552
205.56	4.556
206.9	4.542
207.91	4.518
208.42	4.491
209.26	4.463
209.76	4.436
210.44	4.409
210.94	4.381
211.45	4.354
211.95	4.327
212.46	4.296
212.96	4.265
213.47	4.234
213.97	4.204
214.31	4.173
214.62	4.148
214.98	4.115
215.32	4.084
215.66	4.053
216.16	4.026
216.67	3.998
217.17	3.971
217.68	3.944
218.28	3.917
219.02	3.889
219.86	3.865
220.71	3.838
221.72	3.817
223.06	3.8
224.58	3.8
225.93	3.81
227.44	3.821
228.79	3.834
229.97	3.855
231.14	3.875
232.32	3.892
233.67	3.903
235.02	3.916
236.53	3.92
238.05	3.916
239.56	3.906
240.74	3.886
241.75	3.862
242.59	3.838
243.43	3.814
244.11	3.786
244.78	3.759
245.29	3.732
245.96	3.704
246.46	3.677
246.97	3.65
247.47	3.622
247.95	3.593
248.48	3.564
248.88	3.534
249.33	3.506
249.7	3.48
250.17	3.445
250.55	3.414
250.9	3.389
251.35	3.356
251.78	3.33
252.19	3.298
252.52	3.267
252.94	3.236
253.37	3.205
253.7	3.175
254.21	3.147
254.71	3.116
255.22	3.086
255.72	3.058
256.23	3.031
256.73	3
257.41	2.973
258.08	2.946
258.75	2.918
259.59	2.894
260.6	2.87
262.12	2.86
263.63	2.867
264.98	2.884
266.16	2.901
267.17	2.925
268.18	2.949
269.02	2.976
270.03	3
271.04	3.024
271.88	3.048
272.73	3.075
273.57	3.103
274.41	3.13
275.25	3.158
276.26	3.181
277.1	3.209
278.11	3.229
278.95	3.253
279.8	3.277
280.81	3.298
281.98	3.318
282.99	3.342
284.17	3.363
285.35	3.38
286.53	3.4
287.71	3.417
288.89	3.434
290.23	3.448
291.58	3.462
293.1	3.462
294.61	3.458
296.13	3.451
297.3	3.431
298.65	3.414
299.83	3.393
300.84	3.373
301.68	3.349
302.69	3.325
303.52	3.295
304.21	3.274
304.88	3.246
305.72	3.222
306.39	3.198
307.07	3.168
307.74	3.14
308.18	3.116
308.61	3.087
309.09	3.055
309.43	3.024
309.71	2.999
310.1	2.966
310.45	2.942
310.82	2.914
311.28	2.877
311.61	2.846
311.95	2.816
312.29	2.785
312.62	2.754
312.91	2.726
313.3	2.693
313.85	2.639
314.61	2.554
315.49	2.453
316.5	2.354
317.67	2.228
318.85	2.091
320.03	1.975
321.21	1.852
322.39	1.742
323.57	1.64
