Uv/Vis Spectrum: Ethyl 2,4-dioxovalerate
Formula: C7H10O4
CAS: 615-79-2
Boiling point: 88/ 5 mm
Instrument: unknown
Origin: INSTITUTE OF ENERGY PROBLEMS OF CHEMICAL PHYSICS, RAS
Wavelength (nm)	Logarithm epsilon
208.29	3.223
209.47	3.203
210.32	3.179
211.16	3.155
212.18	3.134
213.19	3.114
214.04	3.086
215.05	3.066
216.07	3.042
216.91	3.018
217.93	2.994
218.61	2.967
219.62	2.943
220.3	2.915
221.14	2.892
221.99	2.864
223	2.84
223.68	2.813
224.53	2.786
225.03	2.758
226.05	2.734
227.23	2.717
228.59	2.7
230.11	2.693
231.63	2.697
232.98	2.714
234.17	2.731
235.35	2.748
236.37	2.772
237.38	2.796
238.4	2.82
239.24	2.844
240.26	2.868
241.1	2.892
241.95	2.915
242.62	2.943
243.47	2.967
244.32	2.991
245.16	3.018
245.84	3.045
246.35	3.073
247.19	3.097
247.7	3.124
248.54	3.151
249.39	3.175
250.07	3.203
250.91	3.23
251.59	3.257
252.6	3.281
253.28	3.308
254.13	3.332
254.97	3.356
255.99	3.38
256.66	3.408
257.68	3.431
258.52	3.455
259.54	3.479
260.55	3.503
261.4	3.527
262.41	3.551
263.6	3.572
264.61	3.595
265.8	3.616
266.81	3.64
267.83	3.66
269.01	3.678
270.19	3.695
271.38	3.715
272.56	3.736
273.75	3.753
275.1	3.766
276.45	3.783
277.81	3.794
279.16	3.804
280.51	3.818
282.03	3.821
283.39	3.835
284.91	3.838
286.43	3.845
287.95	3.848
289.48	3.845
291	3.845
292.52	3.845
294.04	3.842
295.4	3.828
296.92	3.821
298.27	3.807
299.63	3.794
301.15	3.783
302.5	3.77
303.85	3.753
305.21	3.736
306.56	3.722
307.74	3.705
309.1	3.688
310.45	3.678
311.63	3.66
312.82	3.643
313.83	3.623
315.19	3.606
316.37	3.585
317.55	3.565
318.74	3.544
319.92	3.527
321.11	3.507
321.95	3.483
322.97	3.462
323.98	3.442
325.17	3.421
326.18	3.401
327.03	3.377
328.04	3.353
329.06	3.329
330.07	3.305
331.09	3.285
331.93	3.257
332.78	3.233
333.62	3.209
334.64	3.185
335.65	3.161
336.16	3.134
337.01	3.11
337.85	3.086
338.7	3.062
339.37	3.035
340.39	3.011
340.9	2.984
341.74	2.96
342.42	2.933
343.26	2.909
343.94	2.881
344.79	2.857
345.29	2.827
345.97	2.799
346.65	2.772
347.15	2.745
347.83	2.717
348.34	2.69
349.01	2.663
349.52	2.632
350.03	2.604
350.54	2.577
350.88	2.546
351.38	2.516
351.89	2.488
352.4	2.461
352.57	2.43
353.24	2.403
353.75	2.372
354.26	2.341
354.6	2.311
355.27	2.283
355.61	2.252
356.29	2.225
356.8	2.194
357.3	2.164
357.64	2.133
358.32	2.106
358.83	2.078
359.16	2.047
359.67	2.02
360.18	1.993
360.85	1.965
361.19	1.935
361.7	1.907
362.38	1.88
362.72	1.849
363.39	1.822
363.9	1.795
364.41	1.767
364.75	1.736
365.25	1.709
365.93	1.682
366.27	1.651
366.94	1.624
367.62	1.596
