Uv/Vis Spectrum: 2-methylbenzimidazole
Formula: C8H8N2
CAS: 615-15-6
Origin: INSTITUTE OF ENERGY PROBLEMS OF CHEMICAL PHYSICS, RAS
Wavelength (nm)	Logarithm epsilon
190.17	3.616
190.34	3.621
190.68	3.655
191.19	3.7
191.7	3.754
192.21	3.809
192.72	3.867
193.23	3.924
193.74	3.989
194.25	4.037
194.76	4.104
195.27	4.155
195.79	4.214
196.3	4.275
197.06	4.359
197.23	4.379
197.4	4.392
197.57	4.419
197.74	4.429
197.91	4.433
198.08	4.449
198.25	4.457
198.42	4.467
198.59	4.48
198.76	4.486
198.93	4.495
199.1	4.501
199.27	4.51
199.44	4.517
199.61	4.522
199.78	4.53
199.95	4.538
200.12	4.541
200.29	4.544
200.46	4.545
200.63	4.546
200.8	4.547
200.97	4.547
201.14	4.548
201.31	4.548
201.49	4.547
201.66	4.547
201.83	4.546
202	4.543
202.17	4.542
202.34	4.538
202.51	4.538
202.68	4.533
202.85	4.529
203.02	4.525
203.19	4.519
203.36	4.51
203.53	4.506
203.7	4.497
203.87	4.49
204.04	4.483
204.21	4.474
204.38	4.471
204.55	4.466
204.72	4.455
204.89	4.444
205.06	4.436
205.23	4.432
205.4	4.418
205.57	4.41
205.74	4.399
205.91	4.397
206.08	4.389
206.25	4.371
206.42	4.36
206.59	4.343
208.04	4.241
208.55	4.18
209.06	4.148
209.57	4.115
210.08	4.074
210.59	4.048
211.1	4.024
211.61	3.995
212.12	3.965
212.63	3.935
213.14	3.915
213.65	3.889
214.16	3.867
214.67	3.842
215.18	3.817
215.69	3.794
216.2	3.766
216.71	3.742
217.22	3.716
217.73	3.686
218.24	3.655
218.76	3.623
219.27	3.599
219.78	3.581
220.29	3.56
220.8	3.54
221.31	3.526
221.82	3.511
222.33	3.499
222.84	3.495
223.35	3.483
223.86	3.479
224.37	3.476
224.88	3.473
225.39	3.473
226.16	3.479
226.67	3.483
227.18	3.492
227.69	3.499
228.2	3.511
228.71	3.526
229.22	3.535
229.73	3.546
230.24	3.56
230.75	3.573
231.26	3.586
231.77	3.601
232.28	3.618
232.79	3.635
233.3	3.652
233.81	3.666
234.32	3.676
234.83	3.688
235.34	3.696
235.86	3.708
236.37	3.714
236.88	3.723
237.39	3.731
237.9	3.738
238.41	3.743
238.92	3.747
239.43	3.75
239.94	3.75
240.45	3.754
240.96	3.752
241.47	3.75
241.98	3.75
242.49	3.749
243	3.747
243.51	3.745
244.02	3.742
244.53	3.74
245.04	3.732
245.55	3.727
246.06	3.721
246.57	3.716
247.09	3.71
247.6	3.7
248.11	3.686
248.62	3.674
249.13	3.657
249.64	3.635
250.15	3.611
250.66	3.589
251.17	3.562
251.68	3.535
252.19	3.514
252.7	3.499
253.21	3.479
253.72	3.466
254.23	3.452
254.74	3.449
255.25	3.445
255.76	3.438
256.27	3.438
256.78	3.445
257.29	3.452
257.8	3.466
258.31	3.476
258.83	3.495
259.34	3.511
259.85	3.526
260.36	3.54
260.87	3.557
261.38	3.573
261.89	3.591
262.4	3.606
262.91	3.621
263.42	3.639
263.93	3.655
264.44	3.676
264.95	3.69
265.46	3.702
265.97	3.716
266.48	3.734
266.99	3.75
267.5	3.768
268.01	3.786
268.52	3.8
269.03	3.817
269.54	3.829
270.06	3.836
270.57	3.836
271.08	3.821
271.59	3.792
272.1	3.768
272.61	3.742
273.12	3.721
273.63	3.702
274.14	3.69
274.65	3.69
275.16	3.698
275.67	3.727
276.18	3.756
276.69	3.781
277.2	3.8
277.71	3.817
278.22	3.821
278.73	3.814
279.24	3.779
279.75	3.7
280.26	3.625
280.77	3.529
281.29	3.401
281.8	3.333
282.31	3.253
282.82	3.181
283.33	3.11
283.84	3.035
284.35	2.944
284.86	2.871
285.37	2.749
285.88	2.629
