Uv/Vis Spectrum: Naphthalene, 1-(1-methylethyl)-
Formula: C13H14
CAS: 6158-45-8
Melting point: - 16
Boiling point: 268
Instrument: unknown
Origin: INSTITUTE OF ENERGY PROBLEMS OF CHEMICAL PHYSICS, RAS
Wavelength (nm)	Logarithm epsilon
301.34	2.842
301.38	2.842
301.43	2.841
301.48	2.84
301.52	2.839
301.56	2.838
301.6	2.838
301.65	2.837
301.69	2.836
301.73	2.835
301.78	2.834
301.82	2.833
301.86	2.831
301.91	2.829
302.03	2.824
302.16	2.819
302.38	2.811
302.6	2.805
302.81	2.798
303.03	2.792
303.25	2.786
303.46	2.78
303.68	2.774
303.9	2.765
304.11	2.753
304.33	2.742
304.55	2.72
304.76	2.693
304.98	2.675
305.2	2.66
305.41	2.649
305.63	2.639
305.85	2.633
306.06	2.623
306.28	2.618
306.49	2.608
306.71	2.599
306.93	2.59
307.14	2.579
307.36	2.572
307.58	2.562
307.79	2.551
308.01	2.54
308.23	2.529
308.44	2.519
308.65	2.509
308.88	2.499
309.09	2.49
309.31	2.48
309.53	2.471
309.74	2.461
309.96	2.452
310.18	2.445
310.39	2.435
310.61	2.426
310.82	2.419
311.04	2.415
311.26	2.41
311.47	2.407
311.69	2.41
311.91	2.414
312.13	2.42
312.34	2.426
312.56	2.432
312.77	2.439
312.99	2.449
313.21	2.459
313.42	2.463
313.64	2.459
313.83	2.448
314.03	2.429
314.26	2.407
314.5	2.383
314.72	2.357
314.94	2.332
315.15	2.301
315.37	2.275
315.59	2.245
315.8	2.218
316.02	2.187
316.24	2.161
