Uv/Vis Spectrum: 2,5-Cyclohexadiene-1,4-dione, 2,5-dichloro-
Formula: C6H2Cl2O2
CAS: 615-93-0
Instrument: Cary 14M
Origin: INSTITUTE OF ENERGY PROBLEMS OF CHEMICAL PHYSICS, RAS
Wavelength (nm)	Logarithm epsilon
174.72	4.029
175.37	4.059
176.23	4.084
176.87	4.111
177.52	4.133
178.38	4.157
179.02	4.179
179.88	4.198
180.52	4.217
181.6	4.234
182.89	4.249
183.96	4.268
185.68	4.274
187.4	4.268
188.68	4.253
189.76	4.237
190.4	4.219
191.48	4.203
192.55	4.182
193.62	4.164
194.48	4.144
195.34	4.122
196.42	4.099
197.28	4.075
198.35	4.052
199.21	4.025
200.07	3.997
201.14	3.97
201.79	3.937
202.86	3.901
203.93	3.867
205.01	3.831
206.08	3.785
207.37	3.733
208.66	3.683
209.95	3.625
211.45	3.579
212.95	3.505
214.67	3.456
216.39	3.401
218.32	3.355
220.26	3.321
224.12	3.303
226.05	3.303
229.92	3.321
231.85	3.338
233.57	3.386
235.5	3.43
237.22	3.482
238.94	3.559
240.44	3.617
241.95	3.667
243.45	3.712
244.52	3.766
245.81	3.808
246.89	3.847
247.96	3.887
249.03	3.924
250.11	3.958
250.97	3.989
251.83	4.018
252.47	4.046
253.33	4.072
253.97	4.096
254.62	4.122
255.26	4.146
255.91	4.169
256.55	4.191
257.19	4.212
257.84	4.232
258.48	4.251
259.13	4.269
259.77	4.287
260.42	4.304
261.28	4.318
261.92	4.332
263.42	4.341
263.64	4.341
263.85	4.341
264.07	4.343
264.28	4.343
264.5	4.343
264.71	4.344
264.93	4.344
265.14	4.346
265.36	4.346
265.57	4.346
266	4.349
266.43	4.348
266.86	4.349
267.29	4.356
267.72	4.362
268.15	4.365
268.58	4.376
269.01	4.389
269.44	4.402
269.87	4.408
270.3	4.416
270.72	4.423
271.15	4.423
271.58	4.423
272.01	4.414
273.3	4.38
273.73	4.372
274.16	4.356
274.59	4.339
275.02	4.32
275.45	4.293
275.88	4.268
276.31	4.237
276.74	4.177
277.17	4.133
277.6	4.087
278.03	4.046
278.46	4.008
278.89	3.974
279.32	3.906
279.74	3.867
280.17	3.814
280.6	3.785
281.03	3.72
281.46	3.69
281.89	3.651
282.32	3.608
282.75	3.559
283.18	3.517
283.61	3.482
284.04	3.43
284.47	3.355
284.9	3.303
285.33	3.265
285.76	3.2
286.19	3.123
