Uv/Vis Spectrum: Uracil, 1-methyl-
Formula: C5H6N2O2
CAS: 615-77-0
Instrument: Beckman DU
Origin: INSTITUTE OF ENERGY PROBLEMS OF CHEMICAL PHYSICS, RAS
Wavelength (nm)	Logarithm epsilon
222.49	3.705
222.61	3.704
222.73	3.704
222.85	3.703
222.97	3.696
223.45	3.687
223.93	3.677
224.41	3.657
224.89	3.647
225.37	3.635
225.84	3.623
226.32	3.598
226.8	3.585
227.28	3.562
227.76	3.546
228.24	3.531
228.72	3.514
229.2	3.497
229.68	3.482
230.16	3.463
230.64	3.447
231.12	3.43
231.6	3.424
232.07	3.41
232.55	3.398
233.99	3.378
234.95	3.358
235.91	3.361
236.39	3.361
237.35	3.367
237.82	3.378
238.78	3.393
239.74	3.408
240.22	3.42
240.7	3.435
241.18	3.448
241.66	3.45
242.14	3.461
242.62	3.472
243.1	3.484
243.58	3.496
244.05	3.51
244.53	3.515
245.01	3.529
245.49	3.543
245.97	3.556
246.45	3.57
246.93	3.581
247.41	3.593
247.89	3.606
248.37	3.63
249.33	3.655
249.8	3.67
250.28	3.685
250.76	3.694
251.24	3.712
251.72	3.721
252.2	3.731
253.16	3.758
253.64	3.766
254.12	3.776
254.6	3.79
255.08	3.798
255.55	3.813
256.03	3.822
256.51	3.839
256.99	3.845
257.47	3.853
257.95	3.866
258.43	3.871
258.91	3.877
259.39	3.888
259.87	3.892
260.35	3.898
260.83	3.904
261.31	3.914
261.78	3.915
262.26	3.919
262.74	3.924
263.22	3.929
263.7	3.933
264.66	3.939
265.14	3.941
266.1	3.944
267.06	3.943
268.01	3.942
268.49	3.94
268.97	3.936
269.45	3.933
269.93	3.929
271.37	3.919
271.85	3.911
272.33	3.906
273.28	3.89
273.76	3.879
274.24	3.872
274.72	3.86
275.2	3.848
275.68	3.839
276.16	3.823
276.64	3.807
277.12	3.8
277.6	3.784
278.08	3.769
278.56	3.751
279.04	3.74
279.51	3.721
279.99	3.71
280.47	3.688
280.95	3.657
281.43	3.646
281.91	3.619
282.39	3.595
282.87	3.564
283.35	3.544
283.83	3.528
284.31	3.496
284.79	3.45
285.26	3.412
286.22	3.365
286.7	3.305
287.18	3.239
287.66	3.164
288.14	3.119
288.62	3.073
289.1	3.022
289.58	2.916
290.54	2.841
291.02	2.749
291.49	2.634
292.93	2.4
293.89	2.191
294.61	2.079
