Uv/Vis Spectrum: 1,3,5,7-Octatetrayne
Formula: C8H2
CAS: 6165-96-4
Instrument: Unicam SP 800
Origin: INSTITUTE OF ENERGY PROBLEMS OF CHEMICAL PHYSICS, RAS
Wavelength (nm)	Logarithm epsilon
204.97	3.531
205.13	3.579
205.29	3.622
205.45	3.661
205.61	3.697
205.77	3.73
205.93	3.761
206.09	3.79
206.25	3.817
206.41	3.842
206.57	3.866
206.89	3.91
207.21	3.969
207.53	4.005
209.14	4.215
209.46	4.246
209.78	4.283
210.1	4.334
210.42	4.364
210.74	4.407
211.06	4.445
211.38	4.481
211.7	4.513
212.34	4.612
212.66	4.659
212.98	4.725
213.3	4.791
213.62	4.905
213.94	4.944
214.27	4.97
214.59	4.994
214.91	5
215.23	5
215.55	4.999
215.87	4.983
216.19	4.976
216.51	4.948
216.83	4.888
217.15	4.821
217.47	4.75
217.79	4.688
218.11	4.659
218.43	4.636
219.07	4.612
219.39	4.607
219.71	4.603
220.04	4.607
220.36	4.616
220.68	4.624
221	4.636
221.32	4.648
221.64	4.659
221.96	4.678
222.28	4.699
222.6	4.732
222.92	4.763
223.56	4.909
223.88	5.006
224.2	5.041
224.52	5.104
224.84	5.147
225.16	5.169
225.48	5.205
225.81	5.212
226.13	5.211
226.45	5.207
226.77	5.2
227.09	5.134
227.41	5.063
227.73	4.944
228.05	4.856
228.37	4.747
228.69	4.67
229.01	4.632
229.33	4.59
229.65	4.553
229.97	4.508
230.29	4.475
230.61	4.445
230.93	4.4
231.25	4.364
231.58	4.317
231.9	4.274
232.22	4.236
232.54	4.194
232.86	4.16
233.18	4.123
233.5	4.082
233.82	4.053
234.46	3.987
234.78	3.95
235.1	3.91
236.06	3.79
237.35	3.661
240.23	3.477
