Uv/Vis Spectrum: 2,5-Furandione, 3-methyl-
Formula: C5H4O3
CAS: 616-02-4
Melting point: 7.5
Boiling point: 213.5
Instrument: unknown
Origin: INSTITUTE OF ENERGY PROBLEMS OF CHEMICAL PHYSICS, RAS
Wavelength (nm)	Logarithm epsilon
233.95	3.78
234.12	3.776
234.3	3.776
234.48	3.773
234.66	3.773
234.83	3.769
235.01	3.769
235.19	3.766
235.37	3.766
235.55	3.762
235.72	3.762
235.9	3.758
236.08	3.758
236.26	3.755
236.43	3.755
237.98	3.737
239.1	3.719
239.99	3.709
242.54	3.667
243.54	3.648
244.43	3.631
246.21	3.577
247.1	3.542
248.87	3.453
250.65	3.361
252.43	3.254
253.32	3.19
254.21	3.121
255.1	3.041
255.98	2.956
256.87	2.853
257.72	2.771
258.66	2.69
259.54	2.625
260.44	2.552
261.32	2.483
262.2	2.394
263.09	2.295
263.98	2.196
264.89	2.099
265.78	2.016
266.65	1.954
267.54	1.883
268.4	1.821
269.19	1.773
269.97	1.734
270.74	1.699
271.8	1.672
272.87	1.648
273.76	1.634
274.65	1.613
277.31	1.563
278.56	1.548
280.87	1.521
281.75	1.51
282.64	1.503
285.33	1.481
286.2	1.474
287.09	1.471
289.75	1.457
290.64	1.45
291.53	1.442
294.2	1.432
295.08	1.425
295.97	1.421
297.63	1.412
298.6	1.406
299.53	1.403
300.44	1.397
303.08	1.382
303.97	1.379
304.86	1.371
307.52	1.347
308.41	1.339
309.3	1.329
311.95	1.293
312.86	1.275
315.52	1.229
316.41	1.215
317.3	1.208
319.97	1.158
320.85	1.141
323.52	1.073
324.41	1.051
325.22	1.027
326.07	1.002
327.72	0.952
328.85	0.913
329.74	0.881
331.52	0.814
332.41	0.785
333.3	0.753
335.07	0.682
335.96	0.657
337.74	0.558
338.63	0.544
