Uv/Vis Spectrum: Phosphine, tris(2-methylphenyl)-
Formula: C21H21P
CAS: 6163-58-2
Melting point: 125
Instrument: Zeiss PMQ II
Origin: INSTITUTE OF ENERGY PROBLEMS OF CHEMICAL PHYSICS, RAS
Wavelength (nm)	Logarithm epsilon
214.68	4.445
214.78	4.443
214.88	4.443
214.97	4.441
215.07	4.441
215.17	4.441
215.27	4.439
215.37	4.439
215.47	4.439
215.87	4.432
216.57	4.424
217.27	4.411
217.98	4.392
218.69	4.375
219.41	4.354
220.13	4.33
220.86	4.307
221.59	4.279
222.33	4.258
223.07	4.234
223.82	4.205
224.57	4.177
225.32	4.149
226.09	4.12
226.85	4.092
227.63	4.067
228.4	4.039
229.19	4.007
229.98	3.986
230.77	3.962
231.57	3.943
232.37	3.922
233.18	3.911
234	3.899
234.82	3.89
235.65	3.884
236.48	3.879
237.32	3.871
238.17	3.867
239.02	3.86
239.88	3.852
240.74	3.841
241.61	3.83
242.49	3.82
243.37	3.807
244.26	3.794
245.15	3.786
246.06	3.773
246.97	3.762
247.88	3.758
248.8	3.756
249.73	3.758
250.67	3.765
251.61	3.773
252.56	3.786
253.52	3.801
254.25	3.815
255.46	3.838
256.44	3.858
257.43	3.882
258.42	3.907
259.42	3.928
260.43	3.95
261.45	3.969
262.48	3.984
263.51	4.001
264.56	4.013
265.61	4.024
266.67	4.035
267.73	4.045
268.81	4.054
269.9	4.064
270.99	4.071
272.09	4.075
273.2	4.079
274.33	4.084
275.46	4.086
276.6	4.084
277.74	4.079
278.9	4.075
280.07	4.071
281.25	4.067
282.44	4.06
283.64	4.043
284.84	4.03
286.06	4.015
287.29	3.99
288.53	3.967
289.78	3.945
291.04	3.922
292.32	3.899
293.6	3.873
294.9	3.845
296.2	3.816
297.52	3.786
298.85	3.758
299.68	3.741
300.56	3.725
302.33	3.69
303.61	3.662
305.31	3.617
307.09	3.571
308.5	3.531
309.93	3.49
311.38	3.45
312.83	3.414
314.3	3.365
315.79	3.324
317.29	3.284
318.8	3.244
320.33	3.203
321.87	3.154
323.43	3.114
325	3.071
326.59	3.031
328.19	2.988
329.81	2.944
331.44	2.903
333.1	2.857
334.76	2.823
