Uv/Vis Spectrum: DL-Glutamic acid
Formula: C5H9NO4
CAS: 617-65-2
Melting point: 200
Instrument: Zeiss PMQ II
Origin: INSTITUTE OF ENERGY PROBLEMS OF CHEMICAL PHYSICS, RAS
Wavelength (nm)	Logarithm epsilon
182.67	3.694
182.74	3.691
182.81	3.688
182.88	3.686
182.95	3.683
183.02	3.68
183.1	3.677
183.17	3.675
183.24	3.672
183.31	3.669
183.38	3.665
183.45	3.664
183.53	3.661
183.6	3.657
183.67	3.654
183.74	3.653
183.96	3.621
184.39	3.6
184.83	3.579
185.27	3.555
185.71	3.531
186.15	3.507
186.59	3.481
187.04	3.453
187.49	3.424
187.94	3.395
188.39	3.36
188.85	3.329
189.3	3.297
189.76	3.264
190.22	3.235
190.69	3.206
191.15	3.177
191.62	3.153
192.09	3.128
192.57	3.105
193.04	3.083
193.52	3.06
194	3.038
194.48	3.02
194.97	3.003
195.46	2.987
195.95	2.972
196.44	2.96
196.93	2.947
197.43	2.934
197.93	2.921
198.43	2.907
198.94	2.891
199.45	2.875
199.96	2.857
200.47	2.841
200.98	2.825
201.5	2.809
202.02	2.795
202.55	2.78
203.07	2.766
203.6	2.755
204.13	2.74
204.67	2.726
205.2	2.711
205.75	2.697
206.29	2.684
206.83	2.668
207.38	2.654
207.93	2.636
208.49	2.62
209.05	2.603
209.61	2.587
210.17	2.571
210.74	2.555
211.31	2.539
211.88	2.518
212.46	2.499
213.03	2.484
213.62	2.463
214.2	2.447
214.79	2.43
215.38	2.409
215.98	2.387
216.58	2.369
217.18	2.347
217.78	2.329
218.39	2.307
219	2.286
219.62	2.262
220.24	2.239
220.86	2.217
221.48	2.193
222.11	2.167
222.75	2.14
223.38	2.118
224.02	2.094
224.67	2.07
225.31	2.041
225.97	2.017
226.62	1.99
227.28	1.961
227.94	1.93
228.61	1.894
229.28	1.86
229.95	1.828
230.63	1.796
231.32	1.764
232	1.732
232.69	1.697
233.39	1.655
234.09	1.62
234.79	1.583
235.5	1.54
236.21	1.501
236.92	1.455
237.64	1.407
238.3	1.367
239.01	1.331
239.63	1.301
240.36	1.265
241.33	1.212
241.89	1.18
242.81	1.122
