Uv/Vis Spectrum: 1,5-Dihydro-4-methyl-2H-pyrido[3,2-b]indol-2-one
Formula: C12H10N2O
CAS: 61732-48-7
Melting point: 303-305 dec.
Instrument: Specord UV-Vis
Origin: INSTITUTE OF ENERGY PROBLEMS OF CHEMICAL PHYSICS, RAS
Wavelength (nm)	Logarithm epsilon
217.857	4.316
218.857	4.308
219.857	4.293
220.857	4.275
221.857	4.253
222.857	4.225
223.857	4.188
224.857	4.141
225.857	4.081
226.857	4.009
227.857	3.932
228.857	3.857
230.004	3.799
231.004	3.754
232.004	3.725
233.004	3.71
234.004	3.704
235.004	3.705
236.004	3.707
236.793	3.709
237.561	3.711
238.561	3.715
239.561	3.719
240.561	3.722
241.561	3.726
242.561	3.73
243.561	3.734
244.561	3.738
245.561	3.741
246.561	3.745
247.561	3.749
248.561	3.753
249.561	3.757
250.518	3.761
251.494	3.764
252.453	3.769
253.518	3.775
254.518	3.78
255.518	3.787
256.518	3.795
257.518	3.802
258.518	3.808
259.518	3.812
260.518	3.815
261.518	3.816
262.518	3.815
263.518	3.812
264.518	3.807
265.518	3.8
266.518	3.791
267.518	3.779
268.518	3.766
269.518	3.752
270.492	3.719
271.571	3.676
272.492	3.615
273.492	3.511
273.984	3.467
274.54	3.426
275.54	3.373
276.54	3.338
277.54	3.317
278.54	3.307
279.54	3.305
280.54	3.307
281.54	3.312
282.54	3.319
283.54	3.326
284.54	3.333
285.54	3.342
286.54	3.352
287.54	3.365
288.54	3.382
289.54	3.407
289.926	3.418
290.926	3.444
291.926	3.469
292.926	3.494
293.926	3.518
294.926	3.541
295.926	3.564
296.926	3.587
297.926	3.61
298.926	3.632
299.926	3.654
300.926	3.675
301.926	3.696
302.926	3.716
303.926	3.735
304.926	3.754
305.926	3.771
306.926	3.788
307.926	3.804
308.926	3.818
309.926	3.831
310.926	3.843
311.926	3.854
312.926	3.863
313.926	3.871
314.926	3.877
315.926	3.882
316.926	3.885
317.926	3.887
318.926	3.888
319.926	3.888
320.926	3.887
321.926	3.886
323.046	3.884
324.046	3.882
325.046	3.878
326.046	3.873
327.046	3.867
328.046	3.86
329.046	3.851
330.046	3.842
331.046	3.832
332.046	3.822
333.046	3.811
334.046	3.801
335.046	3.791
336.046	3.782
337.046	3.774
338.046	3.767
339.046	3.761
340.046	3.757
341.046	3.755
342.046	3.754
343.046	3.754
344.046	3.757
345.046	3.76
346.046	3.765
347.046	3.771
348.046	3.777
349.046	3.783
350.159	3.787
351.159	3.793
352.159	3.8
353.159	3.807
354.159	3.814
355.159	3.82
356.159	3.825
357.159	3.829
358.159	3.831
359.159	3.83
360.159	3.826
361.159	3.819
362.159	3.809
362.879	3.797
363.668	3.782
364.599	3.766
365.599	3.756
366.599	3.753
367.599	3.753
368.599	3.755
369.599	3.757
370.621	3.761
371.621	3.766
372.621	3.77
373.621	3.773
374.621	3.772
375.621	3.767
376.621	3.754
377.701	3.727
378.701	3.694
379.701	3.66
380.701	3.626
381.701	3.596
382.701	3.572
383.701	3.553
384.701	3.539
385.701	3.53
386.701	3.521
387.701	3.51
388.701	3.493
389.701	3.464
