Uv/Vis Spectrum: Benzenemethanol, .alpha.,.alpha.-dimethyl-
Formula: C9H12O
CAS: 617-94-7
Melting point: 36
Boiling point: 202
Instrument: SF-4
Origin: INSTITUTE OF ENERGY PROBLEMS OF CHEMICAL PHYSICS, RAS
Wavelength (nm)	Logarithm epsilon
221.04	2.317
221.06	2.307
221.1	2.289
221.15	2.27
221.2	2.254
221.28	2.228
221.36	2.204
221.49	2.169
221.63	2.128
222.06	2.029
222.49	1.963
222.92	1.922
223.35	1.885
223.78	1.858
224.2	1.827
224.63	1.809
225.06	1.787
225.49	1.77
225.92	1.76
226.35	1.753
226.78	1.749
227.21	1.742
227.64	1.742
228.07	1.742
228.49	1.749
228.92	1.753
229.35	1.763
229.78	1.773
230.21	1.78
230.64	1.793
231.07	1.806
231.5	1.821
231.93	1.833
232.35	1.844
232.78	1.853
233.21	1.861
233.64	1.875
234.07	1.888
234.5	1.9
234.93	1.917
235.36	1.932
235.79	1.941
236.22	1.952
236.64	1.963
237.07	1.974
237.5	1.986
237.93	2
238.36	2.01
238.79	2.02
239.22	2.027
239.65	2.037
240.08	2.044
240.51	2.053
240.93	2.061
241.36	2.07
241.79	2.077
242.22	2.087
242.65	2.098
243.08	2.109
243.51	2.123
243.94	2.137
244.37	2.149
244.8	2.158
245.22	2.169
245.65	2.173
246.08	2.181
246.51	2.185
246.94	2.19
247.37	2.197
247.8	2.207
248.23	2.218
248.66	2.231
249.09	2.251
249.51	2.269
249.94	2.286
250.37	2.293
250.8	2.288
251.23	2.277
251.66	2.268
252.09	2.262
252.52	2.26
252.95	2.26
253.38	2.263
253.8	2.268
254.23	2.274
254.66	2.286
255.09	2.294
255.52	2.305
255.95	2.32
256.38	2.322
256.81	2.311
257.24	2.289
257.67	2.239
258.09	2.214
258.52	2.201
258.95	2.19
259.38	2.184
259.81	2.177
260.24	2.173
260.67	2.164
261.1	2.16
261.53	2.153
261.96	2.144
262.38	2.137
262.81	2.123
263.24	2.106
263.67	2.083
264.1	2.065
264.53	2.04
264.96	2.02
265.39	1.994
265.82	1.972
266.25	1.943
266.67	1.915
267.1	1.89
267.53	1.861
267.96	1.836
268.39	1.803
268.82	1.777
269.25	1.746
269.68	1.712
270.11	1.684
270.54	1.65
270.96	1.623
271.39	1.583
272.94	1.503
273.45	1.457
274.05	1.421
274.65	1.374
275.25	1.32
275.94	1.28
276.63	1.225
277.31	1.174
278.09	1.132
278.86	1.086
