Uv/Vis Spectrum: Benzenemethanamine, <alpha>-methyl-, (.+/-.)-
Formula: C8H11N
CAS: 618-36-0
Boiling point: 184-185
Instrument: Spektromom 201
Origin: INSTITUTE OF ENERGY PROBLEMS OF CHEMICAL PHYSICS, RAS
Wavelength (nm)	Logarithm epsilon
205.66	3.295
206.07	3.342
206.52	3.389
207.19	3.453
207.86	3.508
208.19	3.535
208.62	3.556
209.22	3.583
209.87	3.604
210.54	3.621
211.17	3.63
211.87	3.638
212.54	3.638
213.23	3.632
213.88	3.617
214.55	3.6
215.22	3.58
215.89	3.556
216.56	3.522
217.22	3.481
217.89	3.433
218.56	3.382
219.23	3.317
219.9	3.235
220.57	3.146
221.24	3.05
221.91	2.958
222.58	2.825
223.24	2.722
223.91	2.613
224.58	2.504
225.25	2.384
225.92	2.302
226.59	2.224
227.17	2.167
227.59	2.123
228.13	2.075
228.76	2.024
229.54	1.961
230.25	1.901
231.07	1.843
231.78	1.785
232.49	1.732
233.23	1.681
233.95	1.643
234.62	1.616
235.28	1.602
235.95	1.599
236.62	1.599
237.29	1.599
237.96	1.616
238.63	1.633
239.3	1.65
239.97	1.674
240.64	1.701
241.31	1.722
241.97	1.752
242.64	1.773
243.31	1.793
243.98	1.824
244.65	1.845
245.32	1.865
245.99	1.886
246.66	1.913
247.33	1.933
247.99	1.961
248.66	1.985
249.33	2.005
250	2.026
250.67	2.053
251.34	2.077
252.01	2.108
252.68	2.128
253.35	2.145
254.01	2.138
254.68	2.121
255.35	2.108
256.02	2.104
256.69	2.118
257.36	2.142
258.03	2.173
258.7	2.203
259.37	2.207
260.03	2.193
260.7	2.176
261.37	2.155
262.04	2.125
262.71	2.087
263.33	2.052
263.71	2.031
264.05	2.012
264.29	2.002
264.72	1.995
265.07	1.991
265.49	1.999
265.77	2.011
266.05	2.015
266.38	2.013
266.72	1.998
267.39	1.95
268.06	1.889
268.73	1.81
269.4	1.67
270.07	1.541
270.74	1.411
271.41	1.281
272.07	1.144
272.74	1.011
273.41	0.892
273.68	0.846
274.27	0.757
275.2	0.651
