Uv/Vis Spectrum: 3-methoxy-3H-1,2,3-triazolo[4,5-b]pyridine
Formula: C6H6N4O
CAS: 61822-85-3
Melting point: 92-93
Instrument: Specord UV-Vis
Origin: INSTITUTE OF ENERGY PROBLEMS OF CHEMICAL PHYSICS, RAS
Wavelength (nm)	Logarithm epsilon
245.658	2.77
246.658	2.779
247.658	2.787
248.658	2.796
249.658	2.803
250.658	2.809
251.658	2.814
252.658	2.818
253.658	2.822
254.594	2.825
255.594	2.829
256.594	2.833
257.594	2.835
258.594	2.835
259.594	2.833
260.594	2.828
261.594	2.821
262.594	2.815
262.615	2.815
263.615	2.81
264.615	2.802
265.615	2.793
266.615	2.783
267.615	2.773
268.615	2.764
269.52	2.755
270.52	2.751
271.52	2.748
272.52	2.745
273.52	2.742
274.52	2.74
275.52	2.74
276.52	2.741
277.52	2.743
278.52	2.747
279.52	2.753
280.486	2.761
281.486	2.77
282.486	2.779
283.486	2.787
284.486	2.795
285.486	2.802
286.486	2.809
287.486	2.815
288.486	2.822
289.486	2.828
290.486	2.834
291.486	2.84
292.367	2.846
293.367	2.85
294.367	2.853
295.367	2.855
296.367	2.856
297.367	2.856
298.367	2.856
299.367	2.854
300.367	2.85
301.367	2.843
302.367	2.834
303.367	2.822
304.367	2.805
304.45	2.803
305.45	2.784
306.45	2.765
307.45	2.742
308.45	2.713
