Uv/Vis Spectrum: 3,5-Dichloronitrobenzene
Formula: C6H3Cl2NO2
CAS: 618-62-2
Melting point: 65.4
Instrument: n.i.g.
Origin: INSTITUTE OF ENERGY PROBLEMS OF CHEMICAL PHYSICS, RAS
Wavelength (nm)	Logarithm epsilon
222.532	4.17487
222.848	4.1748
223.163	4.17471
223.478	4.17459
223.674	4.12062
223.677	4.12107
223.68	4.1215
223.682	4.1219
224.08	4.12061
224.307	4.12061
224.545	4.1206
224.591	4.08397
224.606	4.08672
224.621	4.08942
224.636	4.09208
224.644	4.09344
224.648	4.09414
224.652	4.0948
224.655	4.09544
224.802	4.1206
225.309	4.07503
225.39	4.07083
225.491	4.06659
225.602	4.06231
225.959	4.05282
226.035	4.04742
226.131	4.04195
226.219	4.03256
226.237	4.03642
226.312	4.03053
226.426	4.02846
226.444	4.004
226.446	4.00456
226.449	4.00508
226.451	4.00557
226.549	4.02634
226.797	3.99233
226.8	3.99293
226.802	3.99351
226.805	3.99404
229.052	3.90267
229.093	3.90117
229.144	3.89964
229.215	3.89804
241.333	3.56994
241.336	3.57146
241.339	3.57286
241.341	3.57419
241.341	3.57419
241.58	3.57418
241.839	3.57416
242.107	3.57415
246.862	3.69812
247.225	3.6981
247.597	3.69808
247.99	3.69807
251.861	3.75087
251.874	3.75578
251.886	3.76063
251.899	3.76543
262.719	3.74601
262.958	3.746
263.217	3.746
263.486	3.74598
276.38	3.36943
276.386	3.37532
276.393	3.38114
276.399	3.38688
277.448	3.30888
277.675	3.30886
277.912	3.30883
278.169	3.3088
284.697	2.92033
284.936	2.92027
285.195	2.9202
285.464	2.92013
300.554	3.07395
300.781	3.0739
301.018	3.07386
301.276	3.07381
303.531	3.07339
303.77	3.07335
304.029	3.0733
304.298	3.07325
