Uv/Vis Spectrum: 4-methyl-4H-1,2,3-triazolo[4,5-b]pyridine-1-oxide
Formula: C6H6N4O
CAS: 61822-86-4
Melting point: 136-138
Instrument: Specord UV-Vis
Origin: INSTITUTE OF ENERGY PROBLEMS OF CHEMICAL PHYSICS, RAS
Wavelength (nm)	Logarithm epsilon
254.177	2.739
255.177	2.751
256.177	2.767
257.177	2.787
258.177	2.809
259.177	2.832
260.177	2.856
261.177	2.879
262.177	2.9
263.177	2.917
264.177	2.931
265.177	2.94
266.177	2.945
267.177	2.949
268.3	2.954
269.168	2.96
270.168	2.968
271.168	2.974
272.168	2.98
273.168	2.986
274.168	2.991
275.168	2.995
276.168	2.998
277.168	3.001
278.168	3.003
279.168	3.003
280.168	3.001
281.168	2.995
282.168	2.986
283.168	2.971
284.142	2.947
285.23	2.918
286.23	2.888
287.23	2.859
288.23	2.831
289.23	2.805
290.23	2.779
291.23	2.754
292.23	2.729
293.23	2.702
294.23	2.673
295.23	2.638
