Uv/Vis Spectrum: N,N-bis(phenylmethyl)benzenecarbothiamide, S-oxide
Formula: C21H19NOS
CAS: 61821-39-4
Melting point: 102-105
Instrument: unknown
Origin: INSTITUTE OF ENERGY PROBLEMS OF CHEMICAL PHYSICS, RAS
Wavelength (nm)	Logarithm epsilon
291.528	3.622
292.528	3.613
293.528	3.606
294.528	3.601
295.528	3.599
296.528	3.597
297.528	3.597
298.528	3.599
299.528	3.601
300.528	3.604
301.528	3.609
302.528	3.614
303.528	3.62
304.528	3.626
305.528	3.633
306.528	3.641
307.528	3.649
308.528	3.657
309.528	3.666
310.528	3.675
311.528	3.684
312.528	3.693
313.528	3.702
314.528	3.712
315.528	3.721
316.528	3.731
317.528	3.74
318.528	3.75
319.528	3.759
320.528	3.768
321.528	3.777
321.874	3.779
322.874	3.788
323.874	3.796
324.874	3.802
325.874	3.808
326.874	3.813
327.874	3.818
328.874	3.822
329.874	3.825
330.874	3.829
331.874	3.831
332.874	3.833
333.874	3.833
334.457	3.833
335.457	3.832
336.457	3.83
337.457	3.828
338.457	3.825
339.457	3.822
340.457	3.819
341.457	3.815
342.457	3.811
343.457	3.807
344.457	3.802
345.457	3.797
346.457	3.792
347.457	3.785
348.457	3.779
349.457	3.772
350.457	3.764
351.457	3.756
352.457	3.747
353.457	3.737
354.457	3.727
355.457	3.716
356.457	3.704
357.457	3.692
358.457	3.678
359.457	3.665
360.457	3.65
361.457	3.636
362.457	3.621
363.457	3.606
364.457	3.59
365.457	3.575
366.35	3.564
367.35	3.545
368.35	3.528
369.35	3.511
370.35	3.495
371.35	3.479
372.35	3.463
373.35	3.447
374.35	3.429
375.35	3.412
376.35	3.393
377.35	3.374
378.35	3.354
379.35	3.333
380.35	3.312
381.35	3.29
382.35	3.268
383.35	3.246
384.35	3.224
385.35	3.201
386.35	3.179
387.35	3.156
388.35	3.134
389.35	3.112
390.35	3.09
391.35	3.068
392.361	3.041
