Uv/Vis Spectrum: Benzoyl bromide
Formula: C7H5BrO
CAS: 618-32-6
Boiling point: 218/ 760 mm
Instrument: Unicam SP 500
Origin: INSTITUTE OF ENERGY PROBLEMS OF CHEMICAL PHYSICS, RAS
Wavelength (nm)	Logarithm epsilon
205.45	4.049
205.84	4.045
206.22	4.045
206.61	4.003
207.78	3.802
208.95	3.702
210.11	3.601
211.28	3.522
212.45	3.476
213.62	3.471
214.78	3.501
215.95	3.538
217.12	3.618
219.45	3.698
220.62	3.731
221.78	3.773
222.95	3.806
224.12	3.852
225.28	3.894
227.62	3.928
228.79	3.957
229.95	3.987
231.12	3.995
232.29	4.007
233.45	4.012
234.62	4.016
236.95	4.028
238.12	4.024
240.46	4.012
241.62	4.012
243.96	3.991
245.12	3.982
246.29	3.953
247.46	3.928
248.62	3.924
249.79	3.911
250.96	3.84
252.13	3.735
253.29	3.622
254.46	3.517
255.63	3.434
256.79	3.35
257.96	3.274
260.3	3.17
262.63	3.111
263.8	3.107
264.96	3.094
266.13	3.09
267.3	3.107
268.46	3.115
269.63	3.128
270.8	3.132
271.96	3.136
273.13	3.149
274.3	3.149
275.47	3.149
276.63	3.149
277.8	3.14
278.97	3.124
280.13	3.069
281.3	3.048
282.47	3.044
283.63	3.032
284.8	3.027
285.97	2.931
287.14	2.83
288.3	2.726
289.47	2.663
290.64	2.554
291.8	2.441
292.97	2.311
294.14	2.223
295.31	2.118
297.64	1.989
299.97	1.867
301.14	1.838
302.31	1.792
303.47	1.741
304.64	1.695
305.81	1.645
306.98	1.595
308.14	1.545
309.31	1.494
310.48	1.452
311.64	1.398
312.81	1.352
313.98	1.302
315.14	1.264
316.31	1.214
317.48	1.163
