Uv/Vis Spectrum: 1-Methyl-1-phenylhydrazine
Formula: C7H10N2
CAS: 618-40-6
Boiling point: 106-107/ 13 mm
Instrument: Unicam SP 800
Origin: INSTITUTE OF ENERGY PROBLEMS OF CHEMICAL PHYSICS, RAS
Wavelength (nm)	Logarithm epsilon
200.68	4.294
202.05	4.307
203.58	4.297
204.43	4.273
205.11	4.246
205.62	4.219
206.31	4.192
206.99	4.165
207.5	4.138
208.18	4.11
208.69	4.083
209.37	4.056
209.88	4.029
210.57	4.002
210.91	3.971
211.42	3.944
211.93	3.917
212.44	3.89
212.95	3.863
213.98	3.805
214.49	3.778
215	3.751
215.68	3.723
216.19	3.693
216.7	3.666
217.04	3.635
217.55	3.608
218.24	3.581
219.26	3.557
220.62	3.543
222.16	3.537
223.69	3.543
225.05	3.56
226.25	3.577
227.27	3.601
228.29	3.625
229.31	3.649
230.17	3.672
231.19	3.696
232.04	3.72
233.06	3.744
233.92	3.768
234.94	3.788
235.96	3.812
236.98	3.835
238.18	3.856
239.37	3.876
240.39	3.897
241.58	3.914
242.78	3.931
244.14	3.944
245.5	3.954
246.87	3.968
248.4	3.971
249.94	3.968
251.47	3.961
252.83	3.947
254.2	3.931
255.39	3.91
256.41	3.886
257.43	3.863
258.29	3.839
259.14	3.815
259.99	3.788
260.84	3.761
261.53	3.734
262.21	3.706
262.89	3.679
263.74	3.652
264.25	3.625
264.93	3.598
265.62	3.571
266.13	3.543
266.81	3.516
267.32	3.489
268	3.462
268.85	3.438
269.54	3.411
270.39	3.387
271.07	3.36
271.75	3.333
272.77	3.309
273.63	3.285
274.82	3.268
276.35	3.262
277.89	3.258
279.42	3.262
280.95	3.265
282.49	3.265
284.02	3.268
285.56	3.272
287.09	3.275
288.62	3.272
290.16	3.268
291.69	3.262
293.23	3.251
294.76	3.241
296.12	3.228
297.49	3.211
298.85	3.194
300.21	3.177
301.24	3.156
302.43	3.136
303.45	3.116
304.47	3.095
305.33	3.072
306.35	3.051
307.2	3.027
308.05	3.004
308.9	2.976
309.76	2.949
310.44	2.922
311.12	2.895
311.8	2.868
312.48	2.841
313	2.813
313.68	2.786
314.19	2.759
314.87	2.732
315.38	2.705
316.06	2.678
316.4	2.647
316.92	2.62
317.26	2.589
317.77	2.559
318.11	2.528
318.62	2.498
318.96	2.467
319.47	2.437
319.81	2.406
320.32	2.375
320.66	2.345
321.18	2.318
321.52	2.287
322.03	2.257
322.37	2.226
322.71	2.196
323.22	2.168
323.56	2.138
323.73	2.107
324.24	2.08
324.58	2.05
324.93	2.019
325.27	1.988
325.78	1.958
325.95	1.927
326.46	1.9
326.8	1.87
327.14	1.839
327.65	1.812
327.99	1.781
328.5	1.754
329.02	1.724
329.53	1.696
330.04	1.666
330.55	1.635
331.06	1.605
331.57	1.578
331.91	1.547
332.25	1.516
332.77	1.489
333.11	1.459
333.45	1.428
333.79	1.398
334.13	1.367
334.47	1.337
334.81	1.306
334.98	1.275
335.15	1.245
335.49	1.214
335.83	1.184
336.17	1.153
336.51	1.123
336.86	1.092
337.37	1.065
337.71	1.034
338.22	1.007
338.73	0.977
339.24	0.946
339.75	0.916
340.26	0.888
340.78	0.861
341.46	0.834
342.14	0.807
342.99	0.783
343.67	0.756
344.7	0.732
345.55	0.705
346.57	0.685
347.59	0.664
