Uv/Vis Spectrum: Benzene, (dibromomethyl)-
Formula: C7H6Br2
CAS: 618-31-5
Boiling point: 156/ 23 mm
Instrument: unknown
Origin: INSTITUTE OF ENERGY PROBLEMS OF CHEMICAL PHYSICS, RAS
Wavelength (nm)	Logarithm epsilon
216.55	3.828
216.72	3.83
216.89	3.832
217.06	3.834
217.24	3.836
217.41	3.838
217.58	3.841
217.75	3.843
217.92	3.845
218.09	3.847
218.26	3.849
218.6	3.853
219.28	3.866
219.97	3.875
220.65	3.881
221.33	3.887
222.01	3.896
222.7	3.898
223.38	3.906
224.06	3.909
224.74	3.911
225.43	3.913
226.11	3.913
226.79	3.911
227.47	3.909
228.16	3.906
228.84	3.902
229.52	3.898
230.2	3.892
231.57	3.877
232.25	3.87
232.93	3.864
233.62	3.855
234.3	3.847
234.98	3.836
235.66	3.826
236.35	3.817
237.03	3.809
237.71	3.802
238.39	3.792
239.08	3.779
239.76	3.766
240.44	3.758
241.13	3.745
241.81	3.73
242.49	3.715
243.17	3.702
243.86	3.688
244.54	3.671
245.22	3.654
245.9	3.639
246.59	3.62
247.27	3.6
247.95	3.581
248.63	3.56
249.32	3.539
250	3.52
250.68	3.503
251.36	3.484
252.05	3.464
252.73	3.445
253.41	3.426
254.09	3.403
254.78	3.384
255.46	3.358
256.14	3.335
256.82	3.311
257.51	3.292
258.19	3.267
258.87	3.239
259.55	3.214
260.24	3.186
260.92	3.158
261.6	3.133
262.29	3.095
262.97	3.056
263.65	3.014
264.33	2.98
265.02	2.952
265.7	2.931
266.38	2.912
267.06	2.891
267.75	2.872
268.43	2.852
269.11	2.84
269.79	2.823
270.48	2.812
271.16	2.801
271.84	2.791
272.52	2.78
273.89	2.761
274.53	2.753
275.25	2.744
275.94	2.738
276.62	2.733
278.67	2.725
279.35	2.721
280.71	2.697
280.99	2.69
281.2	2.68
281.42	2.67
281.57	2.653
281.74	2.623
281.91	2.572
282.08	2.54
282.25	2.502
282.42	2.463
282.59	2.417
282.76	2.398
282.93	2.37
283.1	2.349
283.27	2.338
283.44	2.308
283.6	2.277
283.74	2.243
283.96	2.208
284.13	2.17
284.3	2.151
284.47	2.136
284.64	2.117
284.78	2.1
284.98	2.072
285.12	2.055
285.32	2.032
285.49	2.007
285.66	1.992
285.83	1.977
286	1.962
286.17	1.952
286.35	1.939
286.51	1.927
286.69	1.911
286.86	1.898
287.03	1.888
287.2	1.877
287.37	1.867
287.54	1.858
287.71	1.847
287.88	1.837
288.06	1.823
288.23	1.812
288.37	1.801
288.56	1.788
288.75	1.776
288.91	1.764
289.06	1.753
289.24	1.739
289.42	1.726
289.59	1.715
289.76	1.705
289.93	1.696
290.1	1.686
290.27	1.677
290.44	1.667
290.61	1.66
290.78	1.652
290.95	1.643
291.12	1.635
291.29	1.626
291.44	1.62
291.64	1.611
291.81	1.603
291.98	1.594
292.15	1.59
292.32	1.584
292.49	1.575
292.65	1.568
292.83	1.56
293	1.556
293.17	1.55
293.34	1.541
293.51	1.537
293.68	1.533
293.85	1.528
294.03	1.523
294.19	1.516
294.37	1.511
294.54	1.505
294.71	1.501
294.88	1.494
295.05	1.488
295.2	1.484
295.39	1.48
295.56	1.473
295.73	1.469
295.9	1.465
296.07	1.458
296.24	1.454
296.41	1.45
296.58	1.446
296.76	1.441
296.93	1.437
297.1	1.433
297.24	1.429
297.44	1.426
297.61	1.422
297.78	1.418
