Uv/Vis Spectrum: Benzoic acid, 4-(dimethylamino)-
Formula: C9H11NO2
CAS: 619-84-1
Melting point: 244-246
Instrument: Unicam SP 700
Origin: INSTITUTE OF ENERGY PROBLEMS OF CHEMICAL PHYSICS, RAS
Wavelength (nm)	Logarithm epsilon
210.21	3.761
211.05	3.785
212.05	3.809
212.89	3.836
213.89	3.859
214.56	3.887
215.4	3.914
216.23	3.941
217.07	3.965
218.08	3.988
218.91	4.012
219.92	4.033
221.09	4.053
222.26	4.073
223.6	4.084
225.1	4.09
226.61	4.08
227.78	4.06
228.79	4.039
229.79	4.016
230.63	3.992
231.13	3.965
231.8	3.938
232.47	3.91
233.14	3.883
233.64	3.856
234.14	3.829
234.64	3.802
235.15	3.775
235.65	3.747
236.15	3.717
236.49	3.686
236.99	3.656
237.32	3.625
237.66	3.595
237.99	3.564
238.33	3.534
238.83	3.506
239.33	3.476
239.67	3.445
240.17	3.415
240.5	3.384
241	3.357
241.34	3.327
241.84	3.299
242.34	3.272
243.01	3.245
243.51	3.218
244.18	3.191
245.02	3.164
245.69	3.136
246.53	3.113
247.36	3.089
248.37	3.065
249.37	3.041
250.28	3.018
251.27	2.994
252.19	2.967
253.05	2.942
254.01	2.923
255.06	2.906
256.35	2.901
257.73	2.911
259.17	2.934
260.27	2.963
261.18	2.983
261.92	3.004
262.93	3.028
263.77	3.052
264.77	3.075
265.61	3.103
266.44	3.13
267.28	3.157
268.12	3.184
268.95	3.208
270.13	3.228
271.46	3.245
272.8	3.262
273.97	3.279
274.98	3.299
275.82	3.327
276.82	3.347
277.99	3.367
279.33	3.381
280.67	3.394
282.01	3.408
283.18	3.425
284.52	3.439
285.86	3.456
287.2	3.473
288.37	3.489
289.54	3.506
290.71	3.527
291.81	3.547
292.89	3.568
293.89	3.588
295.06	3.608
296.07	3.629
297.24	3.649
298.41	3.666
299.58	3.683
300.75	3.7
301.92	3.717
303.26	3.73
304.44	3.747
305.77	3.761
307.11	3.771
308.45	3.781
309.79	3.792
311.3	3.795
312.8	3.798
314.31	3.798
315.82	3.792
317.19	3.783
318.66	3.771
320	3.758
321.34	3.741
322.68	3.724
323.68	3.703
324.66	3.685
325.86	3.659
326.69	3.635
327.7	3.612
328.54	3.588
329.54	3.564
330.21	3.537
331.05	3.513
331.72	3.486
332.55	3.462
333.05	3.435
333.72	3.408
334.39	3.381
334.9	3.354
335.4	3.323
335.56	3.293
336.07	3.265
336.57	3.238
336.9	3.208
337.41	3.181
337.74	3.15
338.24	3.123
338.74	3.096
339.08	3.065
339.58	3.038
339.92	3.007
340.42	2.98
340.92	2.95
341.26	2.919
341.76	2.892
342.26	2.865
342.59	2.834
343.1	2.804
343.43	2.773
343.93	2.746
344.44	2.719
344.77	2.688
345.27	2.658
345.61	2.627
345.77	2.597
346.28	2.57
346.61	2.539
347.11	2.508
347.45	2.478
347.78	2.447
348.12	2.417
348.62	2.39
348.95	2.359
349.46	2.329
349.79	2.298
350.13	2.267
350.46	2.237
350.96	2.206
351.3	2.176
351.63	2.145
351.97	2.115
352.3	2.084
352.64	2.054
353.14	2.023
