Uv/Vis Spectrum: Benzoic acid, 4-iodo-
Formula: C7H5IO2
CAS: 619-58-9
Melting point: 266-267
Instrument: Unicam SP 700
Origin: INSTITUTE OF ENERGY PROBLEMS OF CHEMICAL PHYSICS, RAS
Wavelength (nm)	Logarithm epsilon
209.56	4.042
209.91	4.011
210.31	3.978
210.74	3.95
211.24	3.922
211.58	3.896
212.08	3.861
212.58	3.834
213.09	3.806
213.59	3.779
214.26	3.752
215.1	3.724
215.66	3.713
216.35	3.706
216.99	3.713
217.45	3.731
218.02	3.757
218.62	3.786
219.3	3.813
219.97	3.84
220.64	3.868
221.31	3.895
221.98	3.922
222.52	3.947
223.32	3.977
223.99	4.004
224.83	4.031
225.67	4.059
226.34	4.079
227.32	4.109
228.19	4.134
229.19	4.158
230.2	4.181
231.21	4.205
232.21	4.229
233.22	4.253
234.23	4.274
235.4	4.294
236.58	4.314
237.92	4.325
239.26	4.335
240.77	4.332
242.28	4.321
243.62	4.304
244.8	4.284
245.81	4.263
246.81	4.243
247.82	4.222
248.66	4.199
249.66	4.175
250.5	4.147
251.34	4.124
252.01	4.096
252.68	4.069
253.52	4.045
254.03	4.018
254.7	3.99
255.37	3.963
256.21	3.936
256.71	3.909
257.21	3.881
257.89	3.854
258.39	3.827
259.06	3.8
259.73	3.772
260.4	3.745
261.24	3.718
261.91	3.69
262.75	3.667
263.59	3.639
264.43	3.615
265.27	3.591
266.28	3.568
267.28	3.544
268.46	3.527
269.63	3.506
270.64	3.486
271.81	3.465
272.99	3.445
274.16	3.424
275.17	3.404
276.34	3.383
277.18	3.36
278.19	3.336
279.03	3.308
279.87	3.285
280.54	3.257
281.21	3.23
281.88	3.203
282.55	3.175
283.05	3.148
283.72	3.121
284.4	3.094
284.9	3.063
285.4	3.036
285.74	3.005
286.24	2.978
286.58	2.947
286.91	2.916
287.42	2.889
287.75	2.858
287.92	2.828
288.26	2.797
288.42	2.766
288.76	2.735
288.93	2.705
289.26	2.674
289.6	2.643
289.93	2.613
290.27	2.582
290.6	2.551
290.77	2.521
291.28	2.493
291.44	2.463
291.78	2.432
292.11	2.401
292.45	2.371
292.95	2.34
293.29	2.309
293.62	2.278
293.96	2.248
294.3	2.217
294.63	2.186
294.97	2.156
295.3	2.125
295.64	2.094
295.97	2.064
296.31	2.033
296.64	2.002
296.98	1.971
