Uv/Vis Spectrum: Phenol, 2-chloro-4-nitro-
Formula: C6H4ClNO3
CAS: 619-08-9
Melting point: 111
Instrument: Specord UV-Vis
Origin: INSTITUTE OF ENERGY PROBLEMS OF CHEMICAL PHYSICS, RAS
Wavelength (nm)	Logarithm epsilon
278.042	3.755
279.042	3.78
280.042	3.802
281.042	3.823
282.042	3.841
283.042	3.857
284.042	3.871
285.042	3.884
286.042	3.895
287.042	3.904
288.042	3.911
289.042	3.918
290.042	3.923
291.042	3.927
292.042	3.93
293.042	3.932
294.042	3.933
294.909	3.933
295.683	3.934
296.212	3.935
297.111	3.935
298.111	3.935
299.111	3.932
300.111	3.929
301.111	3.925
302.111	3.921
303.111	3.917
304.111	3.913
305.111	3.909
306.111	3.905
307.111	3.9
308.111	3.895
309.111	3.889
310.111	3.882
311.111	3.874
312.111	3.865
313.111	3.855
314.111	3.844
315.111	3.83
316.111	3.816
317.111	3.799
318.111	3.782
319.111	3.762
320.111	3.742
321.111	3.72
322.111	3.696
323.111	3.672
324.111	3.647
325.111	3.621
326.111	3.594
327.111	3.567
328.111	3.54
329.111	3.513
330.111	3.486
331.111	3.46
332.111	3.434
333.111	3.409
334.111	3.385
335.111	3.361
336.111	3.339
337.111	3.318
338.111	3.297
339.111	3.278
340.111	3.26
341.111	3.243
342.111	3.228
343.111	3.213
344.111	3.199
345.111	3.186
346.111	3.173
347.111	3.161
348.111	3.15
349.111	3.139
350.111	3.128
351.111	3.117
352.111	3.107
353.111	3.096
354.111	3.085
355.111	3.075
356.111	3.064
357.111	3.053
358.111	3.041
359.111	3.03
360.111	3.019
361.111	3.008
362.111	2.997
363.111	2.986
364.111	2.976
365.111	2.966
366.111	2.957
367.111	2.948
368.111	2.94
369.111	2.933
370.111	2.926
371.111	2.92
372.111	2.915
373.111	2.91
374.111	2.905
375.111	2.901
376.111	2.896
377.111	2.891
378.111	2.885
379.111	2.878
380.111	2.871
381.111	2.863
382.111	2.854
383.111	2.846
384.111	2.839
385.111	2.835
386.111	2.836
