Uv/Vis Spectrum: Benzoic acid, 4-amino-, methyl ester
Formula: C8H9NO2
CAS: 619-45-4
Melting point: 37.5
Instrument: Unicam SP 800 B
Origin: INSTITUTE OF ENERGY PROBLEMS OF CHEMICAL PHYSICS, RAS
Wavelength (nm)	Logarithm epsilon
203.73	4.15
204.58	4.126
205.26	4.099
205.77	4.072
206.28	4.045
206.79	4.017
207.13	3.987
207.47	3.956
207.98	3.929
208.49	3.902
209.5	3.878
211.03	3.881
212.22	3.898
213.58	3.915
214.93	3.932
216.29	3.949
217.65	3.96
219.18	3.963
220.53	3.973
222.06	3.966
223.59	3.96
224.61	3.939
225.63	3.915
226.47	3.892
227.32	3.864
228	3.837
228.68	3.81
229.36	3.783
230.21	3.759
230.72	3.732
231.23	3.701
231.91	3.674
232.41	3.647
232.92	3.62
233.43	3.592
233.94	3.565
234.45	3.538
234.62	3.507
234.96	3.477
235.3	3.446
235.81	3.419
236.15	3.388
236.32	3.358
236.66	3.327
237	3.297
237.17	3.266
237.68	3.239
238.18	3.212
238.69	3.181
239.2	3.154
239.88	3.127
241.24	3.11
242.43	3.127
243.28	3.15
244.12	3.174
244.97	3.198
245.82	3.222
246.67	3.249
247.52	3.276
248.37	3.303
249.05	3.331
249.56	3.358
250.06	3.385
250.74	3.412
251.42	3.439
251.93	3.467
252.44	3.497
253.29	3.524
253.97	3.552
254.48	3.579
255.16	3.606
255.83	3.633
256.51	3.66
257.02	3.691
257.87	3.718
258.72	3.742
259.4	3.769
260.25	3.793
260.93	3.82
261.77	3.844
262.62	3.868
263.47	3.895
264.49	3.919
265.34	3.946
266.36	3.966
267.37	3.987
268.39	4.011
269.41	4.031
270.43	4.055
271.45	4.079
272.64	4.099
273.65	4.123
274.84	4.14
276.03	4.157
277.22	4.174
278.41	4.191
279.76	4.208
281.12	4.225
282.48	4.238
283.84	4.252
285.36	4.259
286.72	4.269
288.08	4.283
289.61	4.286
291.13	4.289
292.66	4.293
294.19	4.286
295.72	4.283
297.07	4.272
298.43	4.259
299.79	4.245
300.98	4.228
302.17	4.211
303.01	4.187
304.2	4.167
305.22	4.147
306.07	4.123
307.09	4.099
307.77	4.072
308.61	4.048
309.29	4.021
310.14	3.997
310.82	3.97
311.33	3.943
312.01	3.915
312.52	3.888
313.03	3.861
313.71	3.834
314.21	3.807
314.72	3.776
315.06	3.745
315.4	3.715
315.91	3.688
318.12	3.453
318.29	3.446
318.46	3.436
318.97	3.399
319.82	3.331
320.66	3.252
321.51	3.184
322.36	3.12
323.21	3.055
324.06	2.97
324.91	2.882
325.76	2.756
326.6	2.64
327.45	2.518
328.3	2.419
329.15	2.314
330	2.229
330.85	2.113
331.69	2.032
332.54	1.94
333.39	1.824
334.24	1.736
335.09	1.63
335.94	1.545
336.79	1.44
337.63	1.352
338.48	1.267
339.33	1.168
340.18	1.093
341.03	1.018
