Uv/Vis Spectrum: Phenol, 3-ethyl-
Formula: C8H10O
CAS: 620-17-7
Melting point: - 4
Boiling point: 218.4
Instrument: unknown
Origin: INSTITUTE OF ENERGY PROBLEMS OF CHEMICAL PHYSICS, RAS
Wavelength (nm)	Logarithm epsilon
215.22	3.749
215.38	3.749
215.55	3.749
215.72	3.745
215.89	3.745
216.05	3.745
216.22	3.741
216.39	3.741
216.56	3.741
216.72	3.736
216.89	3.736
217.06	3.736
217.22	3.732
217.39	3.732
217.56	3.732
217.73	3.728
217.89	3.728
218.13	3.724
218.45	3.719
218.82	3.714
219.1	3.71
219.42	3.704
219.86	3.695
220.23	3.685
220.52	3.676
220.9	3.664
221.26	3.65
221.57	3.639
221.91	3.622
222.24	3.609
222.57	3.593
222.91	3.575
223.24	3.558
223.57	3.544
223.91	3.528
224.25	3.507
224.58	3.486
224.92	3.469
225.25	3.443
225.59	3.422
225.92	3.405
226.25	3.384
226.59	3.358
226.92	3.337
227.26	3.311
227.59	3.286
227.93	3.264
228.26	3.235
228.6	3.209
228.93	3.188
229.26	3.154
229.59	3.126
229.96	3.086
230.27	3.048
230.56	3.011
230.85	2.975
231.2	2.924
231.51	2.878
231.86	2.816
232.27	2.737
232.61	2.682
232.94	2.631
233.28	2.584
233.61	2.542
233.95	2.499
234.27	2.464
234.62	2.427
234.95	2.393
235.28	2.355
235.62	2.325
235.95	2.304
236.29	2.282
236.62	2.257
236.96	2.223
237.29	2.202
237.63	2.18
237.96	2.159
238.29	2.138
238.63	2.125
238.96	2.108
239.3	2.095
239.63	2.087
239.97	2.082
240.3	2.074
240.64	2.065
240.97	2.065
241.3	2.061
241.64	2.065
241.97	2.065
242.31	2.074
242.64	2.078
242.98	2.087
243.31	2.091
243.65	2.095
243.98	2.108
244.31	2.112
244.65	2.121
244.98	2.134
245.32	2.142
245.65	2.155
245.99	2.165
246.32	2.176
246.66	2.189
246.99	2.197
247.31	2.209
247.66	2.223
247.98	2.235
248.33	2.253
248.67	2.269
249	2.282
249.33	2.295
249.68	2.31
250.01	2.325
250.35	2.342
250.7	2.359
251	2.373
251.36	2.389
251.66	2.404
252.01	2.418
252.34	2.435
252.68	2.457
253.01	2.474
253.35	2.491
253.68	2.508
254.01	2.525
254.35	2.542
254.71	2.564
255.07	2.581
255.48	2.605
255.83	2.622
256.16	2.64
256.43	2.654
256.75	2.668
257.02	2.682
257.36	2.699
257.69	2.716
258.03	2.733
258.36	2.75
258.7	2.763
259.03	2.773
259.35	2.787
259.71	2.805
260.03	2.819
260.37	2.831
260.7	2.848
261.04	2.861
261.37	2.878
261.71	2.89
262.04	2.908
262.37	2.92
262.71	2.933
263.04	2.941
263.38	2.954
263.71	2.967
264.05	2.984
264.38	2.992
264.72	3.005
265.04	3.014
265.38	3.026
265.75	3.039
266.05	3.048
266.4	3.059
266.72	3.069
267.02	3.078
267.39	3.086
267.73	3.094
268.06	3.107
268.39	3.116
268.75	3.125
269.06	3.133
269.43	3.139
269.72	3.146
270.07	3.154
270.43	3.164
270.76	3.169
271.07	3.175
271.38	3.183
271.74	3.188
272.07	3.192
272.41	3.188
272.74	3.179
273.01	3.169
273.42	3.151
273.75	3.133
274.04	3.119
274.41	3.094
274.75	3.073
275.08	3.06
275.42	3.052
275.75	3.052
276.09	3.052
276.42	3.06
276.76	3.081
277.09	3.111
277.41	3.14
277.76	3.167
278.09	3.192
278.43	3.213
278.76	3.218
279.1	3.209
279.33	3.18
279.52	3.144
279.83	3.091
280.17	3.022
280.48	2.964
280.75	2.911
280.98	2.855
281.21	2.803
281.44	2.75
281.77	2.673
282.11	2.597
282.43	2.538
282.78	2.482
283.11	2.418
283.44	2.363
283.78	2.312
284.11	2.261
284.45	2.206
284.78	2.163
285.12	2.116
285.45	2.082
285.73	2.063
286.03	2.043
286.45	2.01
