Uv/Vis Spectrum: Benzonitrile, 3-methyl-
Formula: C8H7N
CAS: 620-22-4
Melting point: - 23
Boiling point: 213
Instrument: unknown
Origin: INSTITUTE OF ENERGY PROBLEMS OF CHEMICAL PHYSICS, RAS
Wavelength (nm)	Logarithm epsilon
222.56	3.952
222.91	3.956
223.25	3.96
223.59	3.964
223.93	3.968
224.27	3.968
224.62	3.973
224.96	3.977
225.3	3.977
225.64	3.981
225.98	3.981
226.32	3.981
226.67	3.977
227.01	3.968
227.35	3.964
227.69	3.952
228.03	3.939
228.38	3.931
228.72	3.931
229.06	3.926
229.4	3.926
229.74	3.931
230.09	3.935
230.43	3.939
230.77	3.943
231.11	3.952
231.45	3.96
231.8	3.964
232.14	3.96
232.48	3.947
232.82	3.906
233.16	3.763
233.5	3.684
233.85	3.617
234.19	3.562
234.5	3.515
234.87	3.469
235.21	3.433
235.56	3.399
235.9	3.374
236.24	3.34
236.58	3.319
236.92	3.303
237.27	3.286
237.62	3.26
237.95	3.232
238.28	3.201
238.63	3.169
238.97	3.139
239.32	3.11
239.62	3.086
239.93	3.057
240.22	3.029
240.56	3.006
240.95	2.979
241.37	2.951
241.71	2.926
242.05	2.897
242.38	2.877
242.74	2.867
243.09	2.86
243.42	2.859
243.76	2.859
244.15	2.86
244.54	2.864
244.79	2.867
245.13	2.88
245.47	2.892
245.81	2.901
246.15	2.913
246.5	2.922
246.84	2.93
247.18	2.947
247.53	2.962
247.86	2.974
248.21	2.989
248.55	3.003
248.91	3.017
249.23	3.031
249.57	3.044
249.91	3.055
250.25	3.071
250.6	3.085
250.94	3.098
251.27	3.109
251.62	3.123
251.97	3.135
252.31	3.148
252.65	3.165
252.99	3.181
253.32	3.193
253.67	3.208
254.03	3.221
254.36	3.236
254.67	3.251
255.04	3.265
255.39	3.282
255.74	3.294
256.06	3.307
256.4	3.323
256.75	3.336
257.08	3.352
257.41	3.367
257.78	3.382
258.12	3.399
258.46	3.407
258.8	3.428
259.15	3.445
259.49	3.462
259.83	3.47
260.17	3.479
260.51	3.491
260.86	3.512
261.2	3.529
261.54	3.541
261.88	3.562
262.22	3.579
262.57	3.592
262.91	3.608
263.25	3.625
263.59	3.646
263.93	3.65
264.27	3.667
264.62	3.688
264.96	3.705
265.3	3.726
265.64	3.742
265.98	3.763
266.33	3.78
266.67	3.797
267.01	3.801
267.35	3.797
267.69	3.78
268.04	3.763
268.38	3.755
268.72	3.751
269.06	3.746
269.4	3.759
269.75	3.776
270.09	3.793
270.43	3.793
270.77	3.788
271.11	3.784
271.45	3.784
271.8	3.788
272.14	3.801
272.48	3.809
272.82	3.83
273.16	3.843
273.51	3.868
273.85	3.893
274.19	3.918
274.53	3.943
274.87	3.964
275.22	3.989
275.56	3.989
275.9	3.977
276.24	3.964
276.58	3.947
276.92	3.935
277.27	3.918
277.61	3.901
277.95	3.88
278.29	3.86
278.63	3.83
278.98	3.801
279.32	3.776
279.66	3.759
280	3.738
280.34	3.726
280.69	3.726
281.03	3.738
281.31	3.778
281.52	3.852
281.75	3.95
282.05	4.019
282.39	4.032
282.72	4.032
283.08	4.006
283.42	3.939
283.76	3.876
284.1	3.793
284.45	3.746
284.79	3.709
285.08	3.652
285.47	3.583
285.79	3.519
286.09	3.445
286.43	3.312
286.68	3.081
286.83	2.777
286.94	2.461
287.05	2.225
287.35	2.051
288.04	1.829
288.72	1.649
289.4	1.507
290.09	1.369
290.73	1.258
291.46	1.143
292.07	1.037
292.7	0.945
293.5	0.86
294.16	0.79
294.87	0.724
295.56	0.657
