Uv/Vis Spectrum: Benzene, 1-ethyl-3-methyl-
Formula: C9H12
CAS: 620-14-4
Boiling point: 161.3
Instrument: unknown
Origin: INSTITUTE OF ENERGY PROBLEMS OF CHEMICAL PHYSICS, RAS
Wavelength (nm)	Logarithm epsilon
227.75	2.432
227.8	2.431
227.84	2.431
227.92	2.408
228.09	2.372
228.26	2.337
228.43	2.307
228.6	2.268
228.77	2.234
228.94	2.197
229.11	2.162
229.28	2.125
229.45	2.078
229.62	2.052
229.79	2.023
229.96	2
230.13	1.971
230.3	1.94
230.47	1.907
230.64	1.886
230.81	1.848
230.98	1.821
231.14	1.789
231.31	1.764
231.48	1.738
231.65	1.713
231.82	1.688
231.99	1.664
232.16	1.644
232.33	1.631
232.5	1.617
232.67	1.599
232.79	1.588
232.92	1.577
233.05	1.569
233.21	1.562
233.39	1.553
233.59	1.545
233.78	1.539
234.01	1.533
234.21	1.531
234.38	1.53
234.54	1.529
234.72	1.531
234.88	1.535
235.04	1.539
235.23	1.545
235.39	1.55
235.55	1.555
235.72	1.56
235.89	1.565
236.07	1.573
236.23	1.58
236.4	1.587
236.6	1.596
236.74	1.604
236.91	1.613
237.1	1.624
237.25	1.631
237.44	1.643
237.59	1.652
237.76	1.66
237.95	1.671
238.09	1.678
238.26	1.688
238.43	1.695
238.6	1.702
238.78	1.712
238.94	1.721
239.12	1.73
239.28	1.738
239.45	1.748
239.66	1.759
239.79	1.765
239.97	1.776
240.13	1.783
240.3	1.792
240.47	1.801
240.67	1.812
240.84	1.822
240.98	1.829
241.15	1.838
241.3	1.845
241.46	1.854
241.66	1.863
241.82	1.87
241.99	1.878
242.17	1.888
242.33	1.895
242.5	1.902
242.67	1.912
242.86	1.921
243.01	1.929
243.18	1.938
243.35	1.946
243.52	1.953
243.69	1.959
243.86	1.967
244.03	1.975
244.2	1.983
244.34	1.99
244.54	2
244.69	2.008
244.87	2.016
245.04	2.023
245.21	2.03
245.38	2.035
245.55	2.042
245.72	2.049
245.9	2.056
246.06	2.063
246.23	2.071
246.4	2.079
246.56	2.086
246.74	2.094
246.91	2.102
247.08	2.109
247.25	2.115
247.42	2.12
247.59	2.126
247.76	2.133
247.93	2.138
248.09	2.145
248.26	2.153
248.43	2.159
248.6	2.164
248.77	2.171
248.93	2.177
249.11	2.183
249.28	2.188
249.45	2.194
249.62	2.201
249.8	2.208
249.96	2.215
250.13	2.223
250.3	2.229
250.47	2.236
250.64	2.243
250.81	2.249
250.97	2.257
251.15	2.264
251.3	2.27
251.48	2.277
251.65	2.282
251.82	2.287
251.99	2.293
252.16	2.299
252.33	2.304
252.51	2.31
252.67	2.314
252.84	2.319
253.01	2.322
253.18	2.327
253.35	2.331
253.52	2.335
253.69	2.339
253.86	2.343
254.03	2.348
254.2	2.353
254.38	2.359
254.54	2.364
254.71	2.372
254.89	2.379
255.04	2.386
255.21	2.394
255.38	2.401
255.55	2.411
255.72	2.421
255.89	2.429
256.06	2.437
256.23	2.444
256.4	2.449
256.57	2.452
256.74	2.454
256.91	2.457
257.08	2.459
257.25	2.46
257.42	2.462
257.59	2.464
257.76	2.465
257.93	2.466
258.1	2.467
258.26	2.468
258.43	2.469
258.61	2.47
258.77	2.47
258.94	2.471
259.11	2.472
259.28	2.472
259.45	2.473
259.62	2.475
259.79	2.477
259.96	2.479
260.13	2.482
260.3	2.484
260.47	2.487
260.64	2.489
260.81	2.492
260.98	2.496
261.15	2.5
261.32	2.504
261.49	2.509
261.65	2.516
261.82	2.523
261.99	2.531
262.16	2.537
262.33	2.544
262.5	2.549
262.67	2.556
262.84	2.561
263.01	2.566
263.18	2.569
263.35	2.573
263.52	2.577
263.69	2.58
263.86	2.583
264.03	2.585
264.2	2.587
264.37	2.589
264.54	2.59
264.71	2.59
264.88	2.586
265.04	2.579
265.21	2.568
265.37	2.552
265.55	2.53
265.72	2.513
265.87	2.5
266.06	2.486
266.23	2.475
266.4	2.466
266.57	2.459
266.74	2.454
266.91	2.451
267.07	2.449
267.25	2.449
267.42	2.449
267.59	2.449
267.76	2.451
267.93	2.456
268.1	2.46
268.27	2.461
268.43	2.458
268.58	2.452
268.76	2.442
268.94	2.43
269.11	2.415
269.28	2.395
269.45	2.38
269.62	2.372
269.79	2.37
269.96	2.37
270.13	2.372
270.3	2.375
270.47	2.381
270.64	2.392
270.81	2.404
271.02	2.427
271.15	2.445
271.32	2.471
271.49	2.495
271.66	2.519
271.82	2.53
271.99	2.531
272.16	2.528
272.33	2.503
272.5	2.476
272.67	2.444
272.84	2.411
273.01	2.379
273.18	2.345
273.35	2.306
273.52	2.263
273.69	2.22
273.86	2.176
274.03	2.137
274.2	2.096
274.37	2.049
274.54	2.005
274.71	1.959
274.88	1.921
275.05	1.874
275.21	1.835
275.38	1.807
275.55	1.767
275.72	1.728
275.89	1.68
276.06	1.656
276.23	1.613
276.4	1.58
276.57	1.539
276.74	1.5
276.91	1.45
277.08	1.423
277.25	1.379
277.42	1.347
277.59	1.303
277.76	1.265
277.93	1.233
278.1	1.188
