Uv/Vis Spectrum: 4-Methyldiphenylmethane
Formula: C14H14
CAS: 620-83-7
Melting point: - 30
Boiling point: 286
Instrument: unknown
Origin: INSTITUTE OF ENERGY PROBLEMS OF CHEMICAL PHYSICS, RAS
Wavelength (nm)	Logarithm epsilon
234.14	2.758
234.21	2.755
234.29	2.751
234.5	2.729
234.72	2.706
234.94	2.69
235.16	2.672
235.38	2.65
235.59	2.625
235.81	2.601
236.03	2.576
236.25	2.544
236.47	2.495
236.68	2.449
236.9	2.4
237.12	2.367
237.34	2.345
237.56	2.333
237.77	2.32
237.95	2.311
238.17	2.299
238.43	2.289
238.64	2.282
238.86	2.277
239.08	2.275
239.3	2.273
239.52	2.27
239.73	2.269
239.95	2.268
240.16	2.266
240.39	2.265
240.61	2.265
240.82	2.265
241.04	2.265
241.26	2.265
241.48	2.265
241.7	2.265
241.89	2.266
242.13	2.268
242.35	2.27
242.57	2.273
242.79	2.275
243	2.277
243.22	2.28
243.47	2.283
243.66	2.287
243.88	2.289
244.09	2.294
244.31	2.298
244.53	2.303
244.75	2.309
244.96	2.316
245.18	2.324
245.4	2.333
245.62	2.343
245.84	2.351
246.05	2.361
246.27	2.371
246.49	2.38
246.71	2.391
246.93	2.402
247.14	2.411
247.36	2.421
247.58	2.429
247.8	2.439
248.02	2.447
248.23	2.455
248.45	2.463
248.67	2.469
248.89	2.472
249.11	2.482
249.32	2.488
249.54	2.495
249.76	2.5
249.98	2.505
250.2	2.514
250.41	2.523
250.63	2.534
250.85	2.544
251.07	2.555
251.28	2.564
251.5	2.572
251.72	2.577
251.94	2.58
252.16	2.588
252.37	2.594
252.59	2.599
252.81	2.606
253.03	2.61
253.25	2.615
253.46	2.619
253.68	2.623
253.9	2.626
254.12	2.63
254.34	2.634
254.55	2.637
254.77	2.64
254.99	2.643
255.21	2.646
255.43	2.649
255.64	2.652
255.86	2.655
256.08	2.658
256.3	2.661
256.52	2.664
256.73	2.666
256.95	2.669
257.17	2.673
257.39	2.678
257.61	2.683
257.82	2.687
258.04	2.694
258.26	2.7
258.48	2.705
258.69	2.712
258.91	2.72
259.13	2.726
259.35	2.732
259.57	2.737
259.78	2.743
260	2.747
260.22	2.751
260.44	2.756
260.66	2.76
260.87	2.763
261.09	2.765
261.31	2.765
261.53	2.762
261.75	2.758
261.96	2.755
262.18	2.754
262.4	2.753
262.62	2.751
262.84	2.751
263.05	2.75
263.27	2.749
263.49	2.748
263.71	2.748
263.93	2.747
264.14	2.747
264.36	2.747
264.58	2.747
264.8	2.747
265.01	2.746
265.23	2.745
265.45	2.744
265.67	2.744
265.89	2.745
266.1	2.747
266.32	2.751
266.54	2.756
266.76	2.765
266.98	2.778
267.19	2.787
267.41	2.791
267.63	2.791
267.85	2.787
268.07	2.778
268.28	2.765
268.5	2.756
268.72	2.756
268.94	2.756
269.16	2.758
269.37	2.763
269.59	2.773
269.81	2.781
270.03	2.785
270.25	2.786
270.46	2.773
270.68	2.74
270.9	2.708
271.12	2.672
271.33	2.633
271.55	2.591
271.77	2.552
271.99	2.507
272.21	2.504
272.42	2.504
272.64	2.507
272.86	2.52
273.08	2.552
273.3	2.576
273.51	2.6
273.73	2.625
273.95	2.647
274.17	2.668
274.39	2.688
274.6	2.71
274.82	2.712
275.04	2.707
275.26	2.68
275.48	2.642
275.69	2.603
275.91	2.564
276.13	2.519
276.35	2.457
276.57	2.404
276.78	2.345
277	2.277
277.22	2.171
277.44	2.084
277.86	2.031
278.36	1.984
278.96	1.947
279.47	1.921
280.05	1.893
280.63	1.864
281.21	1.832
281.8	1.798
282.38	1.768
282.96	1.729
283.54	1.694
284.12	1.646
284.7	1.604
285.28	1.544
285.86	1.49
286.45	1.411
287.03	1.335
287.61	1.243
