Uv/Vis Spectrum: 8-cyano-2,4,7-trimethylpyrrolo[1,2-a]pyrimidine-6-carboxylic acid, ethyl ester
Formula: C14H15N3O2
CAS: 62136-34-9
Melting point: 115-116
Instrument: SF-16
Origin: INSTITUTE OF ENERGY PROBLEMS OF CHEMICAL PHYSICS, RAS
Wavelength (nm)	Logarithm epsilon
229.061	4.376
230.061	4.385
231.061	4.407
232.061	4.433
233.061	4.459
234.061	4.48
235.061	4.493
236.061	4.497
237.061	4.492
238.061	4.478
239.061	4.457
240.061	4.43
241.061	4.399
242.061	4.368
243.061	4.337
244.061	4.311
245.061	4.291
246.061	4.278
247.061	4.274
248.061	4.279
249.061	4.292
250.061	4.311
250.085	4.31
251.085	4.335
252.085	4.356
253.085	4.374
254.085	4.392
255.085	4.411
256.085	4.43
257.085	4.449
258.085	4.467
259.085	4.483
260.085	4.496
261.085	4.505
262.085	4.509
263.085	4.508
264.085	4.503
265.085	4.494
266.085	4.485
267.085	4.48
267.485	4.482
268.485	4.481
269.485	4.477
270.485	4.465
271.485	4.442
272.485	4.41
273.485	4.374
274.485	4.336
275.485	4.301
276.485	4.268
276.668	4.268
278.668	4.162
279.668	4.04
280.668	3.899
281.668	3.757
282.668	3.627
283.668	3.52
284.668	3.442
285.668	3.394
286.668	3.378
287.668	3.386
288.668	3.412
288.75	3.42
289.75	3.438
290.75	3.455
291.75	3.472
292.75	3.487
293.75	3.502
294.75	3.517
295.75	3.531
296.75	3.544
297.75	3.558
298.75	3.571
299.75	3.584
300.75	3.597
301.75	3.61
302.75	3.622
303.75	3.635
304.75	3.648
305.75	3.661
306.75	3.673
307.75	3.686
308.75	3.699
309.75	3.712
310.75	3.724
311.75	3.737
312.75	3.749
313.75	3.761
314.75	3.772
315.75	3.783
316.75	3.794
317.75	3.804
318.75	3.813
319.75	3.82
320.75	3.827
321.75	3.831
322.75	3.834
323.75	3.834
324.75	3.832
324.757	3.832
325.757	3.825
326.757	3.816
327.757	3.805
328.757	3.792
329.757	3.778
330.757	3.764
331.757	3.749
332.757	3.734
333.757	3.719
334.757	3.705
335.757	3.692
336.757	3.68
337.757	3.669
338.757	3.659
339.757	3.651
340.757	3.644
341.757	3.639
342.757	3.634
343.757	3.631
344.757	3.629
345.757	3.627
346.757	3.626
347.757	3.625
348.757	3.624
349.757	3.623
350.757	3.621
351.757	3.618
352.757	3.614
353.757	3.609
354.757	3.602
355.757	3.594
356.757	3.584
357.757	3.572
358.757	3.559
359.757	3.544
360.757	3.528
361.731	3.51
362.731	3.498
363.731	3.483
364.731	3.466
365.731	3.448
366.731	3.431
367.731	3.414
368.731	3.397
369.731	3.381
370.731	3.365
371.731	3.348
372.731	3.33
373.731	3.311
374.731	3.289
375.731	3.266
376.731	3.239
377.731	3.211
378.731	3.182
379.731	3.152
380.731	3.125
381.731	3.101
382.731	3.086
382.996	3.085
