Uv/Vis Spectrum: Benzoic acid, 4-nitro-
Formula: C7H5NO4
CAS: 62-23-7
Melting point: 242
Boiling point: sub
Instrument: n.i.g.
Origin: INSTITUTE OF ENERGY PROBLEMS OF CHEMICAL PHYSICS, RAS
Wavelength (nm)	Logarithm epsilon
412.154	0.813594
411.876	0.817612
411.712	0.845978
411.434	0.849996
411.271	0.886553
410.963	0.887741
410.655	0.88901
410.347	0.890455
409.371	0.959904
409.21	0.965366
408.992	0.991505
408.99	0.96408
408.687	0.992792
408.513	0.961074
408.382	0.994511
407.861	1.02584
407.416	1.02858
407.025	1.0634
406.737	1.06017
406.264	1.10075
405.993	1.10465
405.405	1.13118
405.275	1.13626
405.191	1.13898
404.751	1.13652
404.039	1.19984
403.788	1.20863
403.19	1.21194
402.966	1.20493
402.725	1.23613
402.67	1.24004
402.597	1.24404
402.514	1.24822
401.947	1.27875
400.539	1.31103
400.276	1.31493
399.705	1.34927
398.914	1.38438
398.625	1.38984
398.542	1.38856
398.377	1.38555
394.567	1.51754
394.567	1.52288
389.414	1.64305
389.166	1.63212
388.693	1.65633
388.142	1.66061
388.091	1.66852
387.946	1.68479
387.672	1.68479
387.398	1.68479
387.269	1.67661
387.124	1.68479
386.656	1.70754
385.723	1.75346
385.181	1.75865
384.102	1.76946
383.488	1.77375
383.247	1.7843
382.522	1.80984
379.387	1.89076
378.297	1.90963
377.824	1.93137
377.638	1.92746
376.23	1.94592
375.411	1.95674
374.579	1.96765
373.412	1.99184
372.939	1.99976
361.216	2.14751
361.147	2.14947
361.08	2.15152
361.012	2.15375
356.849	2.20068
356.849	2.20603
354.313	2.22838
354.083	2.22437
353.529	2.2466
353.073	2.23841
353.073	2.24387
353.073	2.2466
351.727	2.25136
351.07	2.25051
350.952	2.25868
350.91	2.2626
347.101	2.30123
346.882	2.30123
346.662	2.30123
344.457	2.32585
344.36	2.32736
344.266	2.32346
344.206	2.32151
341.966	2.34621
341.966	2.35155
337.278	2.38823
337.22	2.39094
337.168	2.39357
326.266	2.5439
325.823	2.5439
325.739	2.5478
325.602	2.57473
325.271	2.59032
325.042	2.59151
324.802	2.59278
324.555	2.59422
323.679	2.6508
323.508	2.65871
322.835	2.69137
322.195	2.73145
321.591	2.75379
321.266	2.76411
320.035	2.79632
320.001	2.79905
319.954	2.80178
319.902	2.80451
319.129	2.8369
318.945	2.8408
317.201	2.90643
317.118	2.90751
317.021	2.90361
316.759	2.93794
316.656	2.9364
316.472	2.93365
316.07	2.94546
315.665	2.94575
315.502	2.96459
315.406	2.97423
314.88	2.97423
313.781	3.00856
313.619	3.00985
313.447	3.01131
313.269	3.01285
312.477	3.04408
312.198	3.04679
309.854	3.11039
309.854	3.11585
308.286	3.14249
308.286	3.14784
308.13	3.14734
307.963	3.14666
307.791	3.14589
306.586	3.17878
306.243	3.18022
303.464	3.2509
302.979	3.25708
300.018	3.33786
300.018	3.34604
299.707	3.34722
299.06	3.34994
293.99	3.47947
293.816	3.48337
292.469	3.51472
292.428	3.50366
292.346	3.51056
291.517	3.53799
291.362	3.53849
291.274	3.53409
291.207	3.53917
291.12	3.53799
287.649	3.62304
287.514	3.62694
286.533	3.64528
286.202	3.66308
285.977	3.67961
285.17	3.68626
282.379	3.74437
282.088	3.74556
281.943	3.74633
281.88	3.75569
281.84	3.76037
280.897	3.77447
279.377	3.80485
279.25	3.80886
277.901	3.83099
277.901	3.83645
276.878	3.85752
276.599	3.8587
273.992	3.90785
273.869	3.91449
273.796	3.91799
273.4	3.92074
273.192	3.92228
272.992	3.93165
272.881	3.93633
272.28	3.93878
271.972	3.94023
271.972	3.94569
267.07	4.02099
266.572	4.02772
265.151	4.04128
265.151	4.04674
257.034	4.092
256.914	4.0925
256.845	4.0877
256.793	4.09318
256.725	4.09198
254.023	4.06976
253.972	4.07484
253.939	4.07756
253.766	4.0751
252.469	4.06156
252.341	4.05766
251.262	4.04518
251.082	4.04373
250.409	4.02528
250.181	4.02528
250.066	4.02528
250.066	4.03037
249.904	4.02528
249.676	4.02528
248.882	3.9968
248.823	3.99407
248.77	3.99134
248.672	4.02099
248.56	3.99134
248.56	3.9968
247.39	3.96052
247.39	3.96598
244.444	3.87547
244.444	3.88093
241.414	3.7908
241.248	3.78936
241.171	3.78885
241.066	3.77403
241.02	3.76661
240.643	3.76361
240.461	3.75023
240.461	3.75815
240.461	3.76232
240.25	3.74878
240.145	3.74828
239.217	3.71591
237.676	3.68975
237.573	3.68548
233.767	3.65737
233.767	3.66283
227.935	3.71004
227.796	3.7125
226.884	3.72604
226.79	3.73396
225.909	3.75842
225.806	3.75296
224.403	3.76661
223.67	3.76661
