Uv/Vis Spectrum: Benzene, azido-
Formula: C6H5N3
CAS: 622-37-7
Melting point: - 27.5
Boiling point: 70/ 11 mm
Instrument: Zeiss quartz spectrograph
Origin: INSTITUTE OF ENERGY PROBLEMS OF CHEMICAL PHYSICS, RAS
Wavelength (nm)	Logarithm epsilon
214.46	4.072
214.95	4.061
215.45	4.045
215.94	4.019
216.44	3.981
216.93	3.811
217.43	3.715
217.92	3.608
218.42	3.502
218.91	3.443
219.41	3.406
219.9	3.358
220.4	3.353
220.89	3.353
221.39	3.353
221.88	3.353
222.46	3.36
222.96	3.369
223.41	3.378
223.86	3.388
224.27	3.397
224.81	3.406
225.26	3.413
225.89	3.427
226.34	3.438
226.83	3.449
227.33	3.459
227.83	3.477
228.32	3.496
228.81	3.518
229.31	3.544
229.8	3.566
230.3	3.592
230.79	3.613
231.24	3.634
231.65	3.652
232.19	3.677
232.6	3.695
233.09	3.718
233.86	3.755
234.45	3.782
234.9	3.801
235.25	3.816
235.74	3.832
236.25	3.846
236.75	3.857
237.24	3.867
237.72	3.88
238.22	3.891
238.73	3.903
239.21	3.912
239.7	3.918
240.18	3.924
240.69	3.928
241.19	3.928
241.68	3.928
242.18	3.928
242.67	3.934
243.17	3.939
243.66	3.944
244.16	3.944
244.65	3.944
245.15	3.944
245.64	3.944
246.14	3.944
246.63	3.944
247.13	3.944
247.62	3.944
248.12	3.944
248.61	3.944
249.11	3.944
249.6	3.944
250.1	3.928
250.59	3.923
251.09	3.918
251.58	3.912
252.08	3.907
252.57	3.891
253.07	3.886
253.56	3.864
254.06	3.848
254.55	3.838
255.05	3.822
255.54	3.811
256.04	3.79
256.53	3.779
257.03	3.758
257.52	3.742
258.02	3.72
258.51	3.71
259.01	3.688
259.5	3.662
260	3.64
260.5	3.624
260.99	3.603
261.49	3.582
261.98	3.56
262.48	3.534
262.97	3.512
263.47	3.491
263.96	3.47
264.46	3.438
264.95	3.427
265.53	3.418
266.08	3.414
266.44	3.424
266.86	3.428
267.43	3.417
267.92	3.331
268.42	3.31
268.91	3.305
269.41	3.305
269.9	3.326
270.53	3.365
270.89	3.379
271.43	3.383
271.85	3.384
272.38	3.385
272.94	3.381
273.42	3.376
273.84	3.37
274.36	3.358
274.85	3.337
275.35	3.299
275.84	3.267
276.34	3.251
276.83	3.278
277.33	3.299
277.82	3.305
278.32	3.305
278.81	3.305
279.31	3.305
279.8	3.305
280.3	3.299
280.79	3.289
281.29	3.251
281.71	3.179
281.99	3.096
282.21	3.004
282.75	2.786
283.25	2.666
284.26	2.537
285.25	2.441
286.2	2.356
287.23	2.287
288.22	2.244
289.21	2.212
290.2	2.185
291.19	2.164
292.18	2.153
293.17	2.137
294.16	2.132
295.15	2.121
296.14	2.116
297.13	2.111
298.21	2.105
299.11	2.1
300.1	2.095
301.09	2.089
302.08	2.084
303.07	2.079
304.05	2.074
305.11	2.067
306.07	2.06
306.83	2.055
307.89	2.047
309.04	2.039
310	2.031
310.95	2.025
311.98	2.015
312.97	2.004
313.96	1.988
314.95	1.972
315.94	1.956
316.93	1.946
317.92	1.935
318.91	1.924
319.9	1.914
320.89	1.898
321.88	1.887
322.87	1.871
323.86	1.86
324.85	1.844
325.84	1.834
326.83	1.818
327.82	1.801
328.87	1.782
329.8	1.759
330.79	1.743
331.78	1.722
332.77	1.7
333.76	1.684
334.75	1.663
335.75	1.648
336.62	1.629
337.72	1.604
338.62	1.581
339.7	1.562
340.69	1.546
341.68	1.53
342.67	1.514
343.66	1.493
344.65	1.477
345.64	1.461
346.63	1.445
347.62	1.423
348.61	1.402
349.6	1.375
350.59	1.349
351.58	1.322
352.57	1.29
353.6	1.252
354.55	1.215
355.54	1.183
356.53	1.157
357.52	1.13
358.48	1.097
359.5	1.066
360.48	1.038
361.49	1.008
362.48	0.986
363.47	0.96
364.46	0.922
365.45	0.88
