Uv/Vis Spectrum: N,N'-Diphenylmethylenediamine
Formula: C13H14N2
CAS: 622-14-0
Melting point: 65
Instrument: SF-4
Origin: INSTITUTE OF ENERGY PROBLEMS OF CHEMICAL PHYSICS, RAS
Wavelength (nm)	Logarithm epsilon
221.36	4.076
222.22	4.068
223.75	4.065
225.28	4.067
226.65	4.073
227.5	4.082
228.18	4.091
228.99	4.101
229.55	4.109
230.09	4.116
230.74	4.126
231.25	4.134
231.76	4.141
232.44	4.15
232.95	4.157
233.46	4.164
234.15	4.173
234.59	4.179
235.17	4.189
235.64	4.197
236.02	4.205
236.53	4.212
237.05	4.22
237.56	4.227
238.24	4.234
238.75	4.24
239.6	4.246
240.62	4.25
241.99	4.254
243.52	4.254
245.06	4.253
246.25	4.249
247.1	4.242
247.78	4.236
248.3	4.23
248.98	4.223
249.66	4.216
250	4.209
250.68	4.202
251.36	4.195
251.87	4.187
252.22	4.179
252.73	4.171
253.24	4.164
253.75	4.156
254.26	4.149
254.77	4.141
255.28	4.133
255.8	4.123
256.31	4.115
256.82	4.107
257.33	4.097
257.84	4.088
258.35	4.079
259.03	4.069
259.55	4.06
260.06	4.049
260.57	4.039
261.25	4.029
261.76	4.018
262.27	4.008
262.95	3.997
263.47	3.986
263.98	3.974
264.83	3.962
265.34	3.95
265.85	3.937
266.53	3.925
267.22	3.911
267.73	3.896
268.41	3.881
269.09	3.867
269.77	3.852
270.28	3.836
270.97	3.819
271.82	3.802
272.33	3.785
273.18	3.768
273.86	3.749
274.89	3.732
275.74	3.713
276.76	3.694
277.78	3.677
278.98	3.66
280.34	3.644
281.87	3.635
283.41	3.628
284.94	3.622
286.48	3.622
288.01	3.619
289.54	3.615
291.08	3.608
292.61	3.602
293.98	3.588
295.34	3.569
296.7	3.55
297.77	3.535
299.26	3.51
300.45	3.484
301.65	3.456
302.84	3.431
304.03	3.399
305.4	3.371
306.76	3.34
308.12	3.307
309.49	3.272
310.85	3.234
312.21	3.2
313.58	3.173
315.11	3.145
316.48	3.103
318.01	3.07
319.54	3.033
320.91	2.993
322.15	2.959
323.98	2.916
325.51	2.882
326.74	2.855
328.36	2.818
330.11	2.78
331.18	2.749
333.18	2.678
