Uv/Vis Spectrum: 1-Ethyl-4-methylbenzene
Formula: C9H12
CAS: 622-96-8
Melting point: - 62.3
Boiling point: 162
Instrument: unknown
Origin: INSTITUTE OF ENERGY PROBLEMS OF CHEMICAL PHYSICS, RAS
Wavelength (nm)	Logarithm epsilon
231.19	1.819
231.31	1.796
231.44	1.772
231.57	1.746
231.7	1.718
231.91	1.689
232.08	1.657
232.29	1.623
232.54	1.591
232.8	1.556
233.1	1.53
233.43	1.501
233.75	1.484
234.2	1.471
234.58	1.471
234.96	1.471
235.34	1.477
235.72	1.49
236.06	1.501
236.4	1.519
236.74	1.535
237.11	1.555
237.46	1.572
237.8	1.588
238.16	1.606
238.52	1.623
238.86	1.639
239.23	1.656
239.57	1.672
239.92	1.689
240.22	1.704
240.56	1.718
240.9	1.736
241.24	1.752
241.53	1.768
241.87	1.784
242.21	1.799
242.51	1.814
242.81	1.828
243.1	1.841
243.42	1.856
243.7	1.87
243.96	1.884
244.25	1.899
244.5	1.913
244.76	1.926
245.01	1.941
245.27	1.956
245.52	1.97
245.73	1.984
245.94	1.997
246.16	2.012
246.37	2.026
246.54	2.04
246.75	2.053
246.96	2.066
247.22	2.077
247.43	2.089
247.68	2.1
247.89	2.11
248.15	2.119
248.36	2.128
248.61	2.137
248.87	2.145
249.17	2.153
249.42	2.162
249.64	2.169
249.89	2.178
250.1	2.188
250.27	2.197
250.42	2.208
250.52	2.217
250.69	2.226
250.82	2.235
250.99	2.243
251.17	2.254
251.33	2.261
251.5	2.269
251.63	2.277
251.84	2.285
252.01	2.292
252.18	2.3
252.39	2.307
252.64	2.314
252.86	2.32
253.07	2.326
253.32	2.332
253.58	2.338
253.79	2.344
254.04	2.349
254.3	2.354
254.55	2.36
254.81	2.365
255.06	2.37
255.27	2.377
255.48	2.383
255.7	2.389
255.87	2.395
256.04	2.401
256.16	2.407
256.29	2.414
256.42	2.42
256.5	2.427
256.67	2.432
256.8	2.438
256.93	2.443
257.1	2.448
257.27	2.454
257.43	2.459
257.65	2.464
257.77	2.469
257.99	2.474
258.16	2.479
258.28	2.484
258.45	2.489
258.58	2.494
258.71	2.499
258.83	2.505
258.92	2.51
259	2.515
259.09	2.52
259.17	2.525
259.3	2.53
259.39	2.535
259.47	2.54
259.55	2.543
259.62	2.545
259.67	2.547
259.73	2.548
259.79	2.549
259.85	2.55
259.89	2.551
259.98	2.552
260.15	2.554
260.32	2.553
260.49	2.548
260.65	2.544
260.83	2.539
261	2.534
261.17	2.528
261.34	2.52
261.51	2.517
261.67	2.514
261.84	2.512
262.01	2.511
262.18	2.511
262.35	2.512
262.52	2.514
262.69	2.517
262.86	2.521
263.03	2.522
263.2	2.526
263.37	2.531
263.54	2.537
263.71	2.543
263.88	2.552
264.05	2.567
264.22	2.58
264.39	2.598
264.56	2.621
264.73	2.638
264.9	2.648
265.07	2.653
265.24	2.658
265.41	2.658
265.58	2.656
265.75	2.653
265.92	2.649
266.08	2.646
266.25	2.643
266.42	2.642
266.59	2.641
266.76	2.641
266.93	2.641
267.1	2.643
267.27	2.646
267.44	2.649
267.61	2.652
267.78	2.657
267.95	2.66
268.12	2.66
268.29	2.655
268.44	2.648
268.59	2.634
268.74	2.62
268.91	2.603
269.09	2.581
269.24	2.562
269.39	2.542
269.53	2.525
269.67	2.505
269.94	2.477
270.13	2.454
270.33	2.432
270.49	2.411
270.66	2.394
270.83	2.383
271	2.377
271.17	2.374
271.34	2.378
271.51	2.392
271.68	2.409
271.85	2.427
272.02	2.454
272.13	2.47
272.26	2.496
272.4	2.521
272.56	2.546
272.78	2.583
273.03	2.627
273.23	2.662
273.38	2.683
273.5	2.697
273.62	2.708
273.71	2.712
273.78	2.714
273.85	2.715
273.93	2.715
274.01	2.715
274.1	2.715
274.18	2.715
274.27	2.714
274.35	2.712
274.44	2.707
274.52	2.701
274.61	2.693
274.69	2.686
274.78	2.676
274.86	2.664
274.95	2.655
275.03	2.642
275.12	2.628
275.2	2.615
275.28	2.598
275.37	2.577
275.47	2.55
275.55	2.521
275.72	2.464
275.85	2.425
276.01	2.371
276.17	2.321
276.35	2.267
276.51	2.217
276.7	2.158
276.83	2.112
276.96	2.074
277.1	2.031
277.24	1.99
277.32	1.96
277.49	1.917
277.66	1.872
277.83	1.828
278	1.796
278.17	1.752
278.34	1.715
278.51	1.677
278.68	1.636
278.85	1.6
279.02	1.556
279.19	1.53
279.36	1.489
279.53	1.452
279.7	1.418
279.87	1.388
280.04	1.357
280.2	1.331
280.37	1.295
280.54	1.256
280.72	1.218
280.88	1.177
281.05	1.138
281.2	1.096
281.33	1.055
281.56	0.995
281.69	0.96
281.9	0.913
282.02	0.884
282.16	0.847
282.41	0.781
