Uv/Vis Spectrum: Benzene, (ethylthio)-
Formula: C8H10S
CAS: 622-38-8
Boiling point: 86-87/ 14 mm
Instrument: SF-4
Origin: INSTITUTE OF ENERGY PROBLEMS OF CHEMICAL PHYSICS, RAS
Wavelength (nm)	Logarithm epsilon
221.68	3.643
222.52	3.619
223.37	3.592
224.22	3.568
224.9	3.541
225.57	3.515
226.25	3.488
226.93	3.461
227.94	3.437
229.13	3.42
230.48	3.407
232.01	3.407
233.53	3.41
234.89	3.424
236.24	3.44
237.43	3.457
238.61	3.477
239.63	3.498
240.65	3.518
241.83	3.538
242.85	3.558
243.86	3.579
244.88	3.602
245.9	3.626
246.91	3.646
247.76	3.67
248.77	3.693
249.62	3.72
250.47	3.744
251.48	3.767
252.33	3.791
253.52	3.811
254.7	3.828
255.89	3.845
257.07	3.862
258.6	3.865
259.78	3.845
260.63	3.821
261.48	3.794
262.15	3.767
262.83	3.74
263.34	3.713
264.19	3.686
264.69	3.659
265.2	3.633
265.88	3.606
266.39	3.579
266.9	3.552
267.57	3.525
268.25	3.498
268.76	3.471
269.44	3.444
270.11	3.417
270.62	3.39
271.3	3.363
271.98	3.336
272.65	3.309
273.33	3.282
273.84	3.255
274.52	3.228
275.19	3.201
275.87	3.174
276.55	3.147
277.06	3.12
277.9	3.093
278.41	3.066
279.26	3.039
279.77	3.012
280.61	2.985
281.12	2.958
281.97	2.935
282.48	2.908
283.32	2.881
283.83	2.854
284.68	2.827
285.35	2.8
286.03	2.773
286.71	2.746
287.39	2.719
288.06	2.692
288.74	2.665
289.42	2.638
290.1	2.611
290.77	2.584
291.62	2.557
292.13	2.53
292.98	2.503
293.65	2.476
294.16	2.449
294.84	2.422
295.35	2.395
295.85	2.368
296.36	2.341
296.87	2.314
297.38	2.284
297.72	2.254
298.06	2.223
298.4	2.193
298.9	2.163
299.07	2.132
299.41	2.102
299.58	2.072
299.92	2.041
303.98	1.246
304.15	1.246
304.32	1.242
304.66	1.195
305.34	1.064
306.02	0.949
306.69	0.834
307.37	0.723
308.05	0.592
