Uv/Vis Spectrum: 4-Hydroxybenzylalcohol
Formula: C7H8O2
CAS: 623-05-2
Melting point: 124.5
Boiling point: 252
Instrument: Zeiss PMQ II ,Beckman DU, Beckman DK-2
Origin: INSTITUTE OF ENERGY PROBLEMS OF CHEMICAL PHYSICS, RAS
Wavelength (nm)	Logarithm epsilon
219.481	3.83163
220.419	3.87035
222.38	3.90746
225.037	3.93737
225.037	3.93737
227.554	3.91757
229.009	3.88065
229.794	3.84454
229.794	3.84454
230.371	3.82127
231.315	3.77326
232.258	3.72524
232.835	3.70198
232.835	3.70198
233.09	3.67484
233.338	3.64771
233.58	3.62055
233.816	3.59339
234.046	3.56622
234.27	3.53905
234.49	3.51186
234.703	3.48466
234.912	3.45745
235.117	3.43024
235.316	3.40302
235.512	3.37579
235.703	3.34855
235.89	3.32131
236.074	3.29406
236.254	3.2668
236.43	3.23954
236.604	3.21226
236.775	3.18499
236.943	3.15771
237.109	3.13042
237.273	3.10313
237.434	3.07583
237.594	3.04853
237.752	3.02122
237.909	2.99391
238.064	2.9666
238.219	2.93928
238.373	2.91196
238.526	2.88463
238.679	2.85731
238.832	2.82998
238.985	2.80265
239.138	2.77531
239.292	2.74798
239.447	2.72064
239.602	2.6933
239.759	2.66596
239.917	2.63862
240.077	2.61128
240.238	2.58394
240.402	2.5566
240.567	2.52926
240.735	2.50192
240.906	2.47458
241.079	2.44725
241.256	2.41991
241.436	2.39257
241.619	2.36524
241.806	2.33791
241.997	2.31058
242.192	2.28326
242.391	2.25594
242.391	2.25594
242.963	2.22971
243.745	2.18191
244.423	2.14823
244.423	2.14823
245.053	2.14882
245.683	2.14935
246.313	2.14973
246.313	2.14973
246.888	2.16116
247.796	2.1877
249.812	2.25207
249.812	2.25207
251.03	2.30935
252.015	2.35481
252.804	2.39057
253.438	2.41873
253.953	2.44141
254.391	2.46073
254.788	2.47881
255.184	2.49776
255.618	2.5197
255.618	2.5197
256.339	2.54454
257.364	2.58767
258.085	2.6125
258.085	2.6125
258.663	2.64171
259.27	2.67086
259.907	2.69993
260.573	2.72893
261.267	2.75785
261.989	2.7867
262.739	2.81547
263.515	2.84416
264.318	2.87277
265.146	2.9013
266	2.92973
266.878	2.95809
267.781	2.98635
268.707	3.01451
269.656	3.04259
270.627	3.07057
271.62	3.09845
272.635	3.12623
272.635	3.12623
274.284	3.15922
276.449	3.19197
279.373	3.21021
279.373	3.21021
283.288	3.16614
285.021	3.14503
286.058	3.12878
286.058	3.12878
287.362	3.05533
287.932	3.0274
288.255	3.02106
288.255	3.02106
288.452	2.99373
288.651	2.9664
288.852	2.93906
289.054	2.91171
289.258	2.88435
289.463	2.85699
289.669	2.82962
289.875	2.80224
290.081	2.77485
290.287	2.74746
290.492	2.72006
290.696	2.69266
290.899	2.66525
291.101	2.63783
291.301	2.6104
291.499	2.58297
291.694	2.55553
291.886	2.52808
292.075	2.50063
292.261	2.47317
292.443	2.4457
292.621	2.41823
292.795	2.39074
292.964	2.36326
293.128	2.33576
293.287	2.30826
293.44	2.28075
293.586	2.25324
293.727	2.22572
293.861	2.19819
293.988	2.17065
294.108	2.14311
294.221	2.11557
294.325	2.08801
294.421	2.06045
294.509	2.03288
294.588	2.00531
