Uv/Vis Spectrum: (Z)-4-[4,4-dibromo-1-oxo-2-(trichloroethenyl)-2-butenyl]morpholine
Formula: C10H10Br2Cl3NO2
CAS: 62398-56-5
Melting point: 148-149
Instrument: Cary 14
Origin: INSTITUTE OF ENERGY PROBLEMS OF CHEMICAL PHYSICS, RAS
Wavelength (nm)	Logarithm epsilon
200	4.153
201	4.185
202	4.211
203	4.231
204	4.247
205	4.259
206	4.268
207	4.273
208	4.276
209	4.277
210	4.275
211	4.273
212	4.269
213	4.264
214	4.259
215	4.253
216	4.246
217	4.239
218	4.232
219	4.224
220	4.216
221	4.207
222	4.198
223	4.188
224	4.178
224.861	4.169
225.861	4.156
226.861	4.143
227.861	4.129
228.861	4.115
229.861	4.1
230.861	4.084
231.861	4.067
232.861	4.048
233.861	4.028
234.861	4.007
235.861	3.986
236.861	3.963
237.861	3.941
238.861	3.918
239.861	3.897
240.861	3.875
241.861	3.854
242.861	3.833
243.875	3.812
244.875	3.792
245.875	3.775
246.875	3.759
247.832	3.748
248.832	3.737
249.832	3.728
250.832	3.721
251.832	3.714
252.832	3.708
253.832	3.702
254.832	3.697
255.832	3.692
256.832	3.687
257.832	3.683
258.832	3.678
259.832	3.675
260.832	3.671
261.832	3.668
262.832	3.665
263.832	3.663
264.832	3.66
265.832	3.658
266.832	3.655
267.832	3.653
268.832	3.649
269.832	3.646
270.832	3.641
271.832	3.635
272.832	3.628
273.832	3.619
273.856	3.619
274.856	3.608
275.856	3.598
276.856	3.587
277.856	3.574
278.856	3.561
279.856	3.546
280.856	3.53
281.856	3.513
282.856	3.496
283.856	3.478
284.856	3.46
285.856	3.443
286.856	3.426
287.856	3.41
288.856	3.393
289.856	3.374
290.43	3.357
