Uv/Vis Spectrum: Pyridine, 2,6-dimethoxy-
Formula: C7H9NO2
CAS: 6231-18-1
Boiling point: 179
Instrument: n.i.g.
Origin: INSTITUTE OF ENERGY PROBLEMS OF CHEMICAL PHYSICS, RAS
Wavelength (nm)	Logarithm epsilon
210	3.72
211	3.77
212	3.76
213	3.8
214	3.8
215	3.82
216	3.83
217	3.84
218	3.86
219	3.87
220	3.86
221	3.86
222	3.86
223	3.85
224	3.86
225	3.83
226	3.79
227	3.79
228	3.74
229	3.7
230	3.65
231	3.58
232	3.53
233	3.48
234	3.46
235	3.37
236	3.36
237	3.26
238	3.14
239	3.05
240	2.94
241	2.78
242	2.65
243	2.64
244	2.62
245	2.61
246	2.63
247	2.62
248	2.66
249	2.71
250	2.73
251	2.76
252	2.9
253	2.92
254	2.97
255	3.1
256	3.1
257	3.18
258	3.23
259	3.26
260	3.37
261	3.39
262	3.44
263	3.46
264	3.52
265	3.56
266	3.56
267	3.65
268	3.71
269	3.73
270	3.77
271	3.76
272	3.8
273	3.8
274	3.84
275	3.84
276	3.88
277	3.86
278	3.88
279	3.88
280	3.88029
281	3.88029
282	3.88
283	3.85
284	3.85
285	3.81
286	3.82
287	3.77
288	3.75
289	3.65
290	3.63
291	3.58
292	3.54
293	3.45
294	3.42
295	3.31
296	3.24
297	3.12
298	2.91
299	3.03
