Uv/Vis Spectrum: 3-ethynyl-1H-indole
Formula: C10H7N
CAS: 62365-78-0
Melting point: 114-115
Instrument: Specord UV-Vis
Origin: INSTITUTE OF ENERGY PROBLEMS OF CHEMICAL PHYSICS, RAS
Wavelength (nm)	Logarithm epsilon
205.211	4.228
206.711	4.251
208.211	4.274
209.711	4.298
211.211	4.322
212.711	4.347
214.211	4.372
215.711	4.397
217.211	4.422
218.711	4.448
220.333	4.475
221.833	4.497
223.333	4.506
224.833	4.476
226.595	4.417
228.06	4.368
229.525	4.314
230.838	4.267
232.338	4.224
233.838	4.179
235.237	4.133
236.838	4.08
238.338	4.027
239.838	3.972
240.561	3.95
242.092	3.911
243.622	3.903
245.153	3.896
246.684	3.888
248.214	3.872
249.745	3.849
251.276	3.81
252.806	3.717
254.337	3.654
255.956	3.629
257.456	3.616
258.956	3.609
260.456	3.604
261.956	3.602
263.456	3.602
264.956	3.605
266.61	3.612
268.082	3.62
269.582	3.624
271.082	3.629
272.582	3.634
274.082	3.64
275.582	3.646
277.082	3.652
278.582	3.658
280.082	3.663
281.582	3.668
283.082	3.672
284.582	3.675
286.082	3.676
287.582	3.676
289.082	3.675
290.582	3.671
292.082	3.665
293.582	3.658
295.082	3.647
296.582	3.634
