Uv/Vis Spectrum: 3H-dibenz[f,ij]isoquinoline-2,7-dione
Formula: C16H9NO2
CAS: 6248-10-8
Instrument: SF-4A
Origin: INSTITUTE OF ENERGY PROBLEMS OF CHEMICAL PHYSICS, RAS
Wavelength (nm)	Logarithm epsilon
256.627	4.052
257.627	4.051
258.627	4.047
259.627	4.043
260.627	4.038
261.627	4.035
262.627	4.031
263.627	4.027
264.627	4.02
265.627	4.011
266.627	3.997
267.627	3.977
268.627	3.951
269.627	3.918
270.627	3.878
271.627	3.833
272.627	3.784
273.627	3.735
274.225	3.705
274.942	3.68
275.942	3.648
276.942	3.624
277.942	3.605
278.942	3.591
279.942	3.581
280.942	3.574
281.942	3.571
282.942	3.57
283.942	3.573
284.942	3.579
285.942	3.588
286.942	3.599
287.942	3.614
288.942	3.632
289.942	3.653
290.942	3.675
291.942	3.7
292.942	3.724
293.942	3.748
294.942	3.769
295	3.77
296	3.785
297	3.8
298	3.814
299	3.827
300	3.84
301	3.851
302	3.861
303	3.87
304	3.877
305	3.884
306	3.89
307	3.896
308	3.9
309	3.904
310	3.907
311	3.908
312	3.908
313	3.906
314	3.9
315	3.89
316	3.874
317	3.851
318	3.819
318.03	3.818
319.03	3.787
320.03	3.767
321.03	3.754
322.03	3.747
323.03	3.743
324.03	3.742
325.03	3.742
326.03	3.743
327.03	3.746
328.03	3.751
329.03	3.758
330.03	3.767
331.03	3.779
332.03	3.791
333.03	3.803
334.03	3.813
334.374	3.816
335.374	3.825
336.374	3.833
337.374	3.84
338.374	3.847
339.374	3.853
340.374	3.859
341.374	3.865
342.374	3.872
343.374	3.878
344.374	3.884
345.374	3.889
346.374	3.895
347.374	3.9
348.374	3.904
349.374	3.907
350.374	3.909
351.374	3.909
352.374	3.908
353.374	3.905
354.374	3.901
355.374	3.894
356.374	3.885
357.374	3.874
358.374	3.862
359.374	3.847
360.408	3.831
361.408	3.816
362.408	3.798
363.408	3.779
364.408	3.759
365.408	3.739
366.408	3.721
367.408	3.704
368.408	3.688
369.408	3.675
370.408	3.663
371.408	3.654
372.408	3.646
373.408	3.639
374.408	3.634
375.408	3.629
376.408	3.625
377.408	3.622
378.408	3.619
379.408	3.616
380.387	3.613
381.413	3.61
382.525	3.607
383.525	3.604
384.525	3.602
385.525	3.6
386.525	3.599
387.525	3.598
388.525	3.598
389.525	3.597
390.525	3.597
391.525	3.597
392.525	3.596
393.525	3.596
394.525	3.595
395.525	3.593
396.525	3.592
397.525	3.589
398.525	3.586
399.525	3.582
400.525	3.577
401.525	3.572
402.525	3.565
403.525	3.558
404.525	3.55
405.525	3.541
406.525	3.53
407.525	3.519
408.525	3.507
409.525	3.495
410.525	3.481
411.525	3.467
412.525	3.451
413.525	3.435
414.525	3.419
415.525	3.402
416.525	3.384
417.525	3.366
418.525	3.347
419.525	3.328
420.525	3.309
421.525	3.29
422.525	3.27
423.525	3.25
424.525	3.229
425.525	3.209
426.525	3.188
427.525	3.167
428.525	3.145
429.525	3.123
430.525	3.1
431.525	3.075
432.525	3.05
433.525	3.023
434.525	2.994
435.525	2.963
436.525	2.929
437.525	2.891
438.525	2.85
439.525	2.803
440.525	2.752
441.525	2.694
442.525	2.628
