Uv/Vis Spectrum: Disulfide, dimethyl
Formula: C2H6S2
CAS: 624-92-0
Melting point: -85
Boiling point: 109.8
Instrument: Zeiss PMQ II
Origin: INSTITUTE OF ENERGY PROBLEMS OF CHEMICAL PHYSICS, RAS
Wavelength (nm)	Logarithm epsilon
199.304	3.51218
199.686	3.48862
199.946	3.48657
200.191	3.47376
200.328	3.47376
200.573	3.46096
200.696	3.46096
200.956	3.44815
201.078	3.44815
201.338	3.4374
201.46	3.4374
201.843	3.42254
201.98	3.42024
202.225	3.41383
202.485	3.40538
202.745	3.39463
202.867	3.39463
203.127	3.38182
203.249	3.38182
203.509	3.37132
203.632	3.36901
204.014	3.35621
204.136	3.35416
204.396	3.34545
204.519	3.3434
204.901	3.3306
205.023	3.3306
205.406	3.31574
205.543	3.31344
205.788	3.30499
205.925	3.30294
206.17	3.29423
206.308	3.29218
206.553	3.28373
206.69	3.28143
206.935	3.27297
207.317	3.26657
207.577	3.25581
207.699	3.25377
208.082	3.24096
208.219	3.23865
208.464	3.2302
208.602	3.22815
208.984	3.21304
209.106	3.21304
209.351	3.20024
209.489	3.20024
209.733	3.18974
209.993	3.18538
210.253	3.17258
210.375	3.17258
210.636	3.15977
210.758	3.15977
211.018	3.14902
211.14	3.14697
211.4	3.13621
211.523	3.13416
211.782	3.1234
211.905	3.12136
212.165	3.10855
212.409	3.1042
212.792	3.08704
213.052	3.08294
213.296	3.06783
213.434	3.06783
213.679	3.05502
213.816	3.05502
214.061	3.03786
214.199	3.03786
214.443	3.02301
214.703	3.01456
214.826	3.01456
215.086	3.00175
215.208	3.00175
215.468	2.98664
215.59	2.98459
215.972	2.96538
216.232	2.96103
216.615	2.94182
216.737	2.93978
216.997	2.92466
217.119	2.92261
217.379	2.90981
217.502	2.90981
217.762	2.89495
217.884	2.89265
218.266	2.87344
218.389	2.87139
218.771	2.85218
218.909	2.84988
219.153	2.83503
219.291	2.83298
219.536	2.81787
219.673	2.81582
219.918	2.79866
220.055	2.79661
220.3	2.7838
220.438	2.7815
220.683	2.76869
220.82	2.76664
221.065	2.75179
221.202	2.75179
221.447	2.73463
221.585	2.73463
221.829	2.71978
221.952	2.71747
222.212	2.70031
222.334	2.70031
222.594	2.68546
222.716	2.68546
222.976	2.6683
223.099	2.66625
223.359	2.65344
223.481	2.65139
223.741	2.63628
223.863	2.63424
224.123	2.61938
224.246	2.61708
224.506	2.60632
224.766	2.59351
224.888	2.59351
225.148	2.58071
225.27	2.57866
225.53	2.5638
225.653	2.5638
225.912	2.551
226.035	2.54869
226.28	2.53384
226.417	2.53179
226.662	2.51463
226.922	2.51028
227.044	2.51028
227.304	2.49952
227.564	2.48902
227.686	2.48902
227.946	2.47826
228.069	2.47622
228.329	2.46546
228.451	2.46341
228.711	2.45906
228.956	2.4483
229.093	2.44625
229.338	2.43345
229.476	2.43114
229.858	2.41629
229.98	2.41629
230.24	2.40783
230.363	2.40783
230.745	2.39503
230.989	2.38863
231.25	2.38427
231.372	2.38222
231.632	2.37787
231.892	2.36942
232.014	2.36942
232.274	2.36302
232.396	2.36071
232.656	2.35431
232.901	2.35021
233.039	2.35021
233.543	2.3415
234.186	2.33305
234.308	2.33305
234.568	2.3287
234.935	2.32434
235.317	2.32229
235.959	2.31589
236.984	2.31384
239.645	2.31384
240.929	2.31589
241.556	2.32024
242.459	2.32229
242.963	2.32665
243.728	2.3287
244.355	2.33305
244.997	2.3351
245.502	2.33715
246.022	2.34381
246.267	2.34586
246.909	2.3479
247.291	2.35226
247.551	2.35661
248.056	2.35866
248.438	2.36071
248.82	2.36506
249.203	2.36711
249.585	2.37147
250.212	2.37582
250.594	2.37787
250.976	2.38222
251.619	2.38863
252.123	2.39272
252.383	2.39503
252.766	2.39708
253.27	2.40143
253.53	2.40348
253.913	2.40553
254.54	2.40988
255.06	2.41629
255.824	2.42064
256.206	2.42269
256.956	2.42909
257.338	2.42909
257.98	2.43345
258.867	2.43549
259.127	2.43985
259.51	2.4442
260.397	2.44625
261.284	2.4506
263.577	2.45265
264.097	2.45265
266.513	2.4506
267.14	2.44625
268.043	2.4419
268.287	2.43985
269.052	2.4378
269.434	2.43345
269.939	2.42909
270.321	2.42704
270.841	2.42269
270.964	2.42269
271.606	2.41629
271.85	2.41424
272.11	2.41193
272.37	2.40988
272.875	2.40553
273.135	2.40348
273.38	2.39913
273.762	2.39708
274.649	2.38632
275.031	2.38222
275.291	2.37787
275.796	2.36942
276.056	2.36711
276.316	2.36302
276.438	2.36302
276.698	2.35661
277.08	2.35226
277.203	2.35021
277.585	2.34381
277.707	2.34381
277.967	2.33715
278.212	2.3351
278.594	2.32665
278.854	2.32434
279.114	2.31589
279.359	2.31154
279.879	2.30309
280.001	2.30104
280.261	2.29463
280.384	2.29463
281.026	2.27747
281.271	2.27312
281.53	2.26902
281.913	2.26032
282.295	2.24751
282.677	2.24111
282.922	2.23266
283.06	2.23035
283.304	2.2219
283.442	2.2219
283.824	2.20909
283.947	2.20704
284.207	2.19834
284.329	2.19629
284.589	2.18988
284.711	2.18784
284.971	2.17913
285.094	2.17708
285.476	2.16427
285.598	2.16427
285.858	2.15352
285.981	2.15352
286.24	2.14276
286.363	2.14276
286.623	2.13226
286.745	2.12996
287.005	2.11945
287.127	2.11715
287.51	2.1023
287.632	2.1023
287.892	2.09154
288.014	2.08949
288.274	2.07668
288.397	2.07464
288.657	2.05748
289.039	2.05312
289.299	2.04032
289.544	2.03596
289.681	2.03391
289.926	2.02111
290.186	2.01266
290.308	2.01266
290.568	1.99985
290.813	1.9955
291.195	1.97834
291.333	1.97629
291.577	1.96348
291.715	1.96348
292.097	1.94633
292.22	1.94428
292.48	1.92917
292.602	1.92917
292.862	1.91636
292.984	1.91431
293.244	1.90586
293.489	1.8887
293.627	1.8887
293.871	1.8759
294.009	1.87359
294.254	1.85874
294.514	1.85438
294.774	1.83953
294.896	1.83748
295.14	1.82467
295.278	1.82237
295.523	1.80956
295.661	1.80956
295.905	1.79471
296.043	1.79266
296.288	1.7755
296.547	1.77115
296.93	1.74989
297.052	1.74758
297.312	1.73273
297.434	1.73068
297.694	1.71788
297.817	1.71557
298.077	1.69867
298.199	1.69867
298.459	1.68151
298.581	1.6792
298.841	1.66435
298.964	1.66435
