Uv/Vis Spectrum: Acetamide, N-(4-ethoxyphenyl)-
Formula: C10H13NO2
CAS: 62-44-2
Boiling point: 210
Instrument: Zeiss VSU-1
Origin: INSTITUTE OF ENERGY PROBLEMS OF CHEMICAL PHYSICS, RAS
Wavelength (nm)	Logarithm epsilon
208.91	3.761
209.05	3.746
209.38	3.72
209.79	3.688
210.63	3.638
211.49	3.587
212.34	3.546
213.2	3.501
214	3.474
214.91	3.464
215.77	3.464
216.63	3.467
217.5	3.475
218.39	3.49
219.2	3.508
220.06	3.529
220.89	3.551
221.77	3.575
222.63	3.597
223.49	3.618
224.34	3.642
225.2	3.662
226.06	3.686
226.91	3.71
227.77	3.737
228.63	3.758
229.42	3.777
230.4	3.805
231.2	3.826
232.07	3.851
232.91	3.871
233.8	3.896
234.66	3.92
235.49	3.943
236.34	3.967
237.2	3.987
238.06	4.011
238.91	4.035
239.75	4.057
240.63	4.08
241.49	4.1
242.34	4.117
243.2	4.131
244.06	4.145
244.88	4.155
245.77	4.162
246.63	4.162
247.49	4.163
248.35	4.17
249.2	4.175
250.06	4.182
250.91	4.186
251.77	4.186
252.63	4.186
253.5	4.18
254.34	4.172
255.18	4.165
256.06	4.155
256.91	4.145
257.77	4.134
258.63	4.117
259.49	4.1
260.34	4.08
261.2	4.056
262.06	4.035
262.91	4.004
263.77	3.98
264.63	3.946
265.49	3.912
266.34	3.878
267.2	3.833
267.95	3.797
268.91	3.748
269.77	3.71
270.63	3.676
271.49	3.638
272.21	3.607
273.2	3.57
274.06	3.539
274.91	3.515
275.77	3.488
276.63	3.467
277.49	3.443
278.34	3.426
279.11	3.413
280.06	3.399
280.91	3.385
281.77	3.371
282.63	3.361
283.47	3.351
284.34	3.34
285.2	3.327
286.06	3.316
286.91	3.306
287.8	3.3
288.63	3.289
289.49	3.275
290.34	3.258
291.2	3.238
292.06	3.221
292.95	3.196
293.77	3.169
294.63	3.139
295.49	3.097
296.34	3.063
297.2	3.022
298.06	2.978
298.91	2.926
299.77	2.882
300.63	2.817
301.5	2.761
302.16	2.721
302.94	2.657
303.77	2.578
304.74	2.489
305.77	2.399
306.63	2.314
307.49	2.167
308.34	2.054
309.2	1.914
310.06	1.78
