Uv/Vis Spectrum: (Z)-4-[4,4,4-tricloro-1-oxo-2-(trichloroethenyl)-2-butenyl]morpholine
Formula: C10H9Cl6NO2
CAS: 62570-00-7
Melting point: 125-126
Instrument: Cary 14
Origin: INSTITUTE OF ENERGY PROBLEMS OF CHEMICAL PHYSICS, RAS
Wavelength (nm)	Logarithm epsilon
202.588	4.123
204.088	4.144
205.588	4.159
207.088	4.168
208.588	4.172
210.088	4.172
211.588	4.167
213.088	4.16
214.588	4.149
216.088	4.136
217.588	4.12
219.088	4.103
220.588	4.083
222.088	4.061
223.588	4.037
225.088	4.01
226.588	3.981
228.088	3.949
229.588	3.915
231.088	3.879
232.588	3.841
234.088	3.804
234.223	3.802
235.723	3.755
237.223	3.706
238.723	3.657
240.223	3.609
241.723	3.566
243.223	3.527
244.723	3.494
246.223	3.465
247.723	3.44
249.223	3.42
250.723	3.403
252.223	3.389
253.723	3.378
255.223	3.368
256.723	3.361
258.223	3.355
259.723	3.35
261.223	3.348
262.723	3.346
264.223	3.346
265.723	3.345
267.223	3.344
268.723	3.341
268.897	3.34
270.397	3.336
271.897	3.33
273.397	3.321
274.897	3.309
276.397	3.294
277.897	3.277
279.397	3.258
280.897	3.238
282.397	3.217
283.897	3.195
285.397	3.174
286.897	3.152
288.397	3.13
289.897	3.108
