Uv/Vis Spectrum: Aniline
Formula: C6H7N
CAS: 62-53-3
Melting point: -6.0
Boiling point: 184.1
Instrument: n.i.g.
Origin: INSTITUTE OF ENERGY PROBLEMS OF CHEMICAL PHYSICS, RAS
Wavelength (nm)	Logarithm epsilon
210	3.88
211	3.86
212	3.9
213	3.94
214	3.95
215	3.95
216	3.96
217	3.97
218	3.96
219	3.97
220	3.97
221	3.97
222	3.98
223	3.97
224	3.95
225	3.96
226	3.95
227	3.93
228	3.91
229	3.92
230	3.9
231	3.89
232	3.87
233	3.84
234	3.81
235	3.79
236	3.77
237	3.74
238	3.71
239	3.69
240	3.65
241	3.61
242	3.57
243	3.53
244	3.5
245	3.47
246	3.45
247	3.35
248	3.31
249	3.26
250	3.24
251	3.24
252	3.11
253	3.1
254	3.03
255	3.06
256	3.01
257	3
258	2.98
259	2.96
260	2.92
261	2.94
262	2.95
263	2.91
264	2.91
265	2.9
266	2.88
267	2.89
268	2.89
269	2.89
270	2.88
271	2.88
272	2.87
273	2.88
274	2.87
275	2.87
276	2.87
277	2.89
278	2.88
279	2.88
280	2.88
281	2.9
282	2.9
283	2.91
284	2.95
285	2.94
286	2.93
287	2.92
288	2.91
289	2.97
290	3
291	2.99
292	2.98
293	3.03
294	3.04
295	3.09
296	3.1
297	3.11
298	3.11
299	3.12
300	3.12
301	3.12
302	3.12
303	3.18
304	3.18
305	3.18
306	3.18
307	3.19
308	3.2
309	3.21
310	3.22
311	3.22
312	3.22
313	3.23
314	3.24
315	3.24
316	3.25
317	3.27
318	3.26
319	3.27
320	3.27
321	3.27
322	3.27
323	3.27
324	3.33
325	3.31
326	3.33
327	3.33
328	3.33
329	3.32
330	3.31
331	3.3
332	3.29
333	3.29
334	3.29
335	3.31
336	3.33
337	3.33
338	3.31
339	3.32
340	3.3
341	3.3
342	3.3
343	3.3
344	3.31
345	3.32
346	3.31
347	3.28
348	3.29
349	3.31
350	3.23
351	3.21
352	3.2
353	3.13
354	3.12
355	3.09
356	3.08
357	3.08
358	3.08
359	3.07
360	3.07
361	3.07
362	3.07
363	3.08
364	3.08
365	3.08
366	3.08
367	3.08
368	3.06
369	3.06
370	3
371	2.88
372	2.87
373	2.87
374	2.7
375	2.63
376	2.64
377	2.57
378	2.55
379	2.4
380	2.36
381	2.32
382	2.25
383	2.1
384	2.04
385	1.98
386	1.95
387	1.85
388	1.83
389	1.74
390	1.74
391	1.7
392	1.72
393	1.67
394	1.59
395	1.6
396	1.5
397	1.47
398	1.43
399	1.38
