Uv/Vis Spectrum: 2-Pentene, 2-methyl-
Formula: C6H12
CAS: 625-27-4
Melting point: -135
Boiling point: 67.3
Instrument: Beckman DU
Origin: INSTITUTE OF ENERGY PROBLEMS OF CHEMICAL PHYSICS, RAS
Wavelength (nm)	Logarithm epsilon
170	3.97
171	4.02
172	4.02
173	3.98
174	3.98
175	3.99
176	4.02
177	4.02
178	3.99
179	3.98
180	3.97
181	3.98
182	3.98
183	3.95
184	3.94
185	3.94
186	3.94
187	3.95
188	4
189	4.02
190	4.02999
191	4.03
192	4.06
193	4.08
194	4.09
195	4.07
196	4.03
197	4.02
198	4.03
199	3.98
200	3.91
201	3.81
202	3.72
203	3.61
204	3.5
205	3.39
206	3.26
207	3.17
208	3.08
209	2.98
