Uv/Vis Spectrum: 2,5-Dimethylpyrrole
Formula: C6H9N
CAS: 625-84-3
Boiling point: 171; 51(8)
Instrument: n.i.g.
Origin: INSTITUTE OF ENERGY PROBLEMS OF CHEMICAL PHYSICS, RAS
Wavelength (nm)	Logarithm epsilon
209.454	3.84936
209.582	3.83392
209.805	3.82109
209.924	3.80846
210.137	3.79936
210.243	3.79277
210.275	3.77721
210.356	3.78201
210.457	3.77723
210.559	3.77724
210.595	3.75964
210.693	3.75609
210.795	3.75032
211.006	3.74142
211.119	3.72928
211.326	3.7223
211.433	3.7129
211.726	3.7081
211.829	3.70154
212.032	3.6958
212.131	3.69078
212.335	3.6849
212.437	3.67808
212.637	3.67371
212.74	3.66672
212.942	3.66136
213.044	3.65406
213.244	3.64955
213.347	3.64204
213.547	3.6374
213.648	3.63072
213.849	3.62584
213.955	3.61503
214.342	3.60694
214.444	3.59877
214.734	3.59467
214.847	3.5873
215.031	3.58514
215.139	3.58088
215.326	3.57764
215.526	3.57212
215.711	3.57002
215.819	3.56547
216.197	3.56337
216.295	3.55765
216.492	3.55547
216.675	3.55426
216.78	3.55206
217.067	3.54974
217.163	3.54624
217.451	3.54275
217.545	3.54048
217.926	3.5358
218.316	3.53341
218.604	3.52982
218.879	3.52869
219.075	3.52623
219.452	3.52511
219.841	3.52266
220.4	3.52158
222.106	3.52191
222.674	3.52322
223.046	3.52582
223.329	3.52705
223.51	3.52827
223.791	3.53082
223.983	3.53202
224.174	3.53453
224.354	3.53573
224.823	3.54299
225.002	3.54544
225.475	3.55017
225.654	3.55257
226.125	3.55833
226.215	3.55834
226.493	3.56412
226.595	3.56414
226.773	3.56742
226.862	3.56864
227.329	3.57748
227.42	3.5775
227.606	3.58302
227.697	3.58303
227.885	3.58732
227.976	3.58734
228.163	3.59159
228.255	3.59161
228.62	3.59898
228.721	3.60012
228.899	3.60326
229.089	3.60527
229.365	3.61143
229.544	3.61352
229.82	3.61945
229.921	3.62054
230.097	3.62448
230.288	3.62651
230.463	3.63132
230.565	3.63134
230.841	3.63715
230.931	3.63808
231.386	3.64574
231.488	3.64575
231.664	3.64947
231.762	3.65226
231.849	3.65503
231.944	3.65228
232.045	3.65318
232.136	3.65319
232.326	3.65597
232.594	3.65875
232.697	3.65876
233.156	3.66338
233.348	3.66427
233.527	3.66601
233.719	3.667
234.09	3.66972
234.282	3.6706
234.474	3.67147
234.655	3.67245
234.935	3.67512
235.218	3.676
235.499	3.67771
235.693	3.67774
236.064	3.68039
236.246	3.68041
236.72	3.68223
237.002	3.68403
237.376	3.6849
237.657	3.68668
238.314	3.6884
240.682	3.6879
240.968	3.68712
241.152	3.68541
241.529	3.68464
242.013	3.6812
242.298	3.68041
242.495	3.67867
242.769	3.67787
243.056	3.67624
243.535	3.67536
243.732	3.67371
244.006	3.6728
244.113	3.67017
244.395	3.67116
244.683	3.6694
244.957	3.66859
245.153	3.6668
245.439	3.66598
245.635	3.66418
246.012	3.66337
246.197	3.66156
246.585	3.66075
246.872	3.65894
247.158	3.65811
247.343	3.65628
247.72	3.65546
247.916	3.65372
248.293	3.65279
248.58	3.65106
248.957	3.65011
249.244	3.64837
249.723	3.64744
250.101	3.6457
250.58	3.64487
250.856	3.64299
251.244	3.64215
251.714	3.64029
252.659	3.63952
253.322	3.63768
254.551	3.63695
256.826	3.63729
258.622	3.63848
259.745	3.64058
260.222	3.64156
260.503	3.64353
261.059	3.64451
261.443	3.64648
261.908	3.64744
262.281	3.64928
262.95	3.65038
263.232	3.6522
263.606	3.65325
263.978	3.65507
264.454	3.65612
264.918	3.65794
265.861	3.65895
266.893	3.66094
269.258	3.66215
269.92	3.66051
270.968	3.65968
271.346	3.65799
272.007	3.65721
272.295	3.65539
272.865	3.65459
273.152	3.65276
273.529	3.65193
273.907	3.6501
274.193	3.64925
274.48	3.6474
274.949	3.64567
275.145	3.64379
275.431	3.64293
275.811	3.64015
276.097	3.63917
276.384	3.63738
276.578	3.63649
276.763	3.63457
277.049	3.63369
277.338	3.63084
277.623	3.62983
277.912	3.62695
278.108	3.6251
278.292	3.62419
279.064	3.61729
281.165	3.59525
282.031	3.58583
282.32	3.58264
282.514	3.58164
282.608	3.57944
282.897	3.5762
283.08	3.57518
283.278	3.5719
283.372	3.56964
283.567	3.56861
283.66	3.56634
283.855	3.56529
283.949	3.56314
285.011	3.55066
285.486	3.5437
286.156	3.53551
286.733	3.52832
287.02	3.52602
287.115	3.52232
287.311	3.51981
288.179	3.50735
288.272	3.50489
288.467	3.50353
288.652	3.50107
289.137	3.49454
289.807	3.48536
290.098	3.47854
290.281	3.47726
290.387	3.47446
290.57	3.47316
291.727	3.4536
292.305	3.44491
295.849	3.38734
297.292	3.36152
297.476	3.35984
297.672	3.35619
297.765	3.35271
297.96	3.35077
298.145	3.34727
298.722	3.33613
299.784	3.3151
300.073	3.30914
300.257	3.307
300.362	3.3031
300.545	3.30093
300.639	3.29697
300.834	3.29477
301.122	3.28878
301.317	3.28654
301.411	3.28244
301.607	3.27808
301.791	3.27604
301.884	3.27158
302.079	3.26952
302.173	3.26498
302.368	3.26289
302.462	3.25829
302.656	3.25616
302.75	3.25149
303.232	3.24465
304.572	3.21108
304.766	3.20871
305.621	3.1854
305.816	3.18288
306.289	3.16917
306.484	3.16656
306.772	3.15815
306.967	3.15546
307.728	3.13521
307.923	3.13201
308.017	3.12615
308.395	3.11998
308.5	3.11358
308.683	3.1106
309.063	3.10106
309.258	3.098
309.352	3.09126
309.546	3.08813
309.743	3.08129
310.017	3.07813
310.213	3.07113
310.408	3.06785
310.593	3.0611
310.788	3.05731
310.972	3.0504
311.167	3.04651
311.363	3.03943
311.649	3.0355
311.938	3.02408
312.316	3.01673
312.788	3.00097
313.178	2.99272
313.557	2.98017
313.843	2.97619
314.028	2.9673
314.508	2.95899
314.981	2.94038
315.266	2.93601
315.646	2.92167
315.932	2.91711
316.323	2.90214
316.608	2.89737
316.884	2.88677
317.17	2.88183
317.561	2.86556
317.847	2.85968
318.226	2.84325
318.603	2.83715
318.89	2.82571
319.269	2.81328
319.556	2.8004
320.035	2.79457
320.413	2.78121
320.79	2.775
321.077	2.76177
321.545	2.7545
321.741	2.74051
322.118	2.73277
