Uv/Vis Spectrum: Pyridine, 3-chloro-
Formula: C5H4ClN
CAS: 626-60-8
Boiling point: 148; 86(100)
Instrument: n.i.g.
Origin: INSTITUTE OF ENERGY PROBLEMS OF CHEMICAL PHYSICS, RAS
Wavelength (nm)	Logarithm epsilon
267.271	2.48495
267.155	2.48523
267.032	2.50326
266.813	2.53008
266.134	2.61636
266.012	2.63058
265.901	2.6372
265.676	2.66985
265.153	2.76468
265.035	2.77946
264.932	2.79373
264.712	2.8028
264.595	2.81635
264.497	2.83407
264.394	2.84668
264.277	2.85895
264.178	2.87458
264.073	2.88246
263.956	2.89378
263.858	2.90822
263.752	2.91552
263.639	2.92929
263.541	2.94301
263.443	2.95593
263.337	2.97476
262.126	3.11328
262.015	3.11335
261.925	3.12653
261.817	3.13733
261.724	3.14785
261.63	3.15788
260.812	3.21652
260.706	3.21825
260.486	3.22541
260.383	3.22874
260.055	3.23578
259.948	3.23744
259.723	3.24093
259.491	3.24103
258.944	3.24621
258.822	3.24626
258.612	3.24948
258.382	3.24958
258.163	3.25452
257.957	3.2594
257.843	3.26268
257.739	3.26423
257.638	3.26746
257.541	3.27216
257.423	3.27368
257.326	3.27831
257.226	3.28144
257.109	3.28311
257.009	3.28603
256.915	3.29212
256.798	3.29358
256.705	3.29939
256.605	3.30237
256.495	3.30671
256.396	3.30964
256.296	3.31238
256.077	3.31532
255.984	3.32085
255.884	3.32908
255.689	3.33592
255.587	3.34261
255.494	3.34781
255.399	3.35171
255.293	3.35695
255.194	3.35941
255.099	3.36321
254.987	3.3658
254.888	3.36836
254.79	3.37076
254.678	3.37329
254.363	3.37821
253.939	3.38081
253.506	3.3798
253.275	3.37625
253.165	3.3738
252.935	3.3702
252.825	3.36773
252.715	3.36538
252.589	3.36168
252.48	3.35915
252.37	3.35661
252.251	3.35543
252.042	3.35428
251.923	3.35294
251.814	3.35051
251.708	3.34916
251.487	3.348
251.382	3.34679
251.161	3.34547
250.623	3.34442
250.322	3.34578
250.11	3.34726
249.898	3.34858
249.702	3.35128
249.589	3.35132
249.28	3.3539
249.083	3.35535
248.46	3.35679
248.145	3.35569
248.029	3.35436
247.924	3.35194
247.607	3.34943
247.505	3.34823
247.387	3.34563
247.18	3.34178
247.062	3.33914
246.954	3.3352
246.849	3.33251
246.742	3.32851
246.628	3.32725
246.523	3.32451
246.419	3.32192
246.302	3.31915
246.198	3.31636
246.094	3.31373
245.974	3.30955
245.873	3.30806
243.044	3.25504
242.844	3.2503
242.734	3.2488
242.534	3.24399
242.424	3.24226
242.231	3.24077
242.021	3.23588
241.92	3.23249
241.71	3.2275
241.61	3.22426
241.497	3.2208
241.3	3.21566
241.188	3.21213
241.088	3.20856
240.988	3.20517
240.78	3.19985
240.677	3.19441
240.469	3.18896
240.364	3.18134
240.162	3.17963
240.063	3.17578
239.856	3.17009
239.758	3.16639
239.552	3.16057
239.456	3.15847
239.247	3.1506
239.149	3.14648
239.05	3.14257
238.845	3.13617
238.75	3.13421
238.64	3.12994
238.543	3.12588
238.445	3.12151
238.241	3.11506
238.146	3.113
237.943	3.10642
237.739	3.09973
237.642	3.0951
237.445	3.09301
237.343	3.08348
237.246	3.07896
237.14	3.07644
236.947	3.0669
236.842	3.0646
236.746	3.05957
236.649	3.05449
236.545	3.05212
236.452	3.04973
236.355	3.04453
236.155	3.03682
236.061	3.03402
235.966	3.02895
235.862	3.02612
235.766	3.02095
234.321	2.97281
234.124	2.96369
234.033	2.96076
233.941	2.95743
233.837	2.95139
233.742	2.94485
233.651	2.94179
233.546	2.93513
233.367	2.93209
233.265	2.92855
233.081	2.91843
232.99	2.91518
232.801	2.91202
232.711	2.90829
232.606	2.90108
232.516	2.8977
232.328	2.89441
232.235	2.88695
232.142	2.87936
231.954	2.87593
231.865	2.87234
231.487	2.86106
231.206	2.84493
231.03	2.84119
230.93	2.83732
230.755	2.83301
230.655	2.82907
230.567	2.82507
230.295	2.82078
230.116	2.80777
229.931	2.80372
229.747	2.79963
229.659	2.79479
229.568	2.78596
229.025	2.76715
228.843	2.7627
226.975	2.7075
226.712	2.70256
226.623	2.6909
226.444	2.68559
225.666	2.68075
225.499	2.67529
224.978	2.65777
224.373	2.653
224.035	2.6468
223.779	2.6411
223.523	2.63533
223.44	2.62826
222.853	2.62313
222.429	2.61754
222.097	2.61081
221.756	2.60485
221.428	2.6057
220.114	2.60225
219.622	2.59572
218.407	2.59197
218.089	2.59285
217.774	2.60072
217.611	2.60116
216.971	2.6029
216.188	2.6194
215.954	2.62662
215.721	2.63451
215.646	2.63471
215.416	2.64794
215.181	2.64852
214.957	2.67472
214.798	2.6751
214.651	2.68125
214.497	2.69369
214.344	2.7051
214.198	2.71152
214.044	2.72248
213.973	2.7285
213.892	2.73381
213.82	2.73904
213.746	2.73919
213.665	2.745
213.524	2.76057
213.444	2.76551
213.372	2.77096
213.232	2.78565
213.08	2.79491
213.009	2.8
212.862	2.818
212.791	2.82231
212.714	2.83121
212.643	2.8354
212.574	2.84403
212.428	2.86032
212.359	2.86847
212.284	2.88015
212.218	2.8915
212.15	2.89909
212.075	2.90998
212.009	2.9206
211.945	2.93419
211.868	2.94109
211.804	2.95406
211.741	2.96703
211.664	2.97306
211.601	2.98549
211.539	2.99999
211.467	3.01169
211.406	3.02536
211.343	3.0364
211.268	3.04436
211.207	3.05706
211.144	3.06732
211.079	3.08425
211.02	3.09834
210.959	3.10983
210.905	3.12753
210.835	3.13805
210.782	3.15466
210.723	3.16666
210.654	3.17651
210.597	3.18973
210.542	3.20277
210.474	3.21354
210.41	3.21885
