Uv/Vis Spectrum: 2,4,6-Cycloheptatrien-1-one, 2-amino-
Formula: C7H7NO
CAS: 6264-93-3
Melting point: 104-105
Instrument: Beckman DU
Origin: INSTITUTE OF ENERGY PROBLEMS OF CHEMICAL PHYSICS, RAS
Wavelength (nm)	Logarithm epsilon
217.98	4.07
218.26	4.07
218.54	4.067
218.82	4.065
219.1	4.065
219.38	4.062
219.66	4.059
219.94	4.056
220.22	4.056
220.51	4.054
220.79	4.051
221.07	4.051
221.35	4.048
221.63	4.046
221.91	4.046
222.19	4.043
223.03	4.032
223.88	4.024
224.72	4.018
225.56	4.01
226.57	4
227.25	3.994
228.09	3.985
228.93	3.977
229.78	3.966
230.62	3.958
231.46	3.952
232.3	3.941
233.15	3.933
233.99	3.925
234.83	3.914
235.67	3.906
236.52	3.903
237.36	3.9
238.2	3.9
239.12	3.9
239.89	3.903
240.77	3.908
241.57	3.917
242.42	3.925
243.26	3.932
244.1	3.941
244.94	3.955
245.79	3.969
246.63	3.988
247.47	4.004
248.31	4.018
249.16	4.037
250	4.056
250.84	4.073
251.69	4.092
252.53	4.106
253.37	4.098
254.21	4.081
255.06	4.065
255.9	4.048
256.74	4.035
257.58	4.029
258.43	4.021
259.27	4.018
260.11	4.018
260.95	4.015
261.8	4.01
262.64	4.004
263.48	3.996
264.33	3.983
265.17	3.928
266.01	3.862
266.85	3.81
267.7	3.758
268.54	3.733
269.38	3.728
270.22	3.725
271.07	3.717
271.91	3.698
272.75	3.676
273.6	3.646
274.44	3.503
275.28	3.408
276.12	3.293
276.97	3.172
277.81	3.038
278.65	2.877
279.49	2.794
280.34	2.742
281.18	2.71
282.02	2.701
282.86	2.701
283.71	2.71
284.55	2.72
285.39	2.726
286.24	2.729
287.08	2.734
287.92	2.734
288.76	2.745
289.61	2.764
290.45	2.789
291.29	2.816
292.13	2.844
292.98	2.871
293.82	2.896
294.66	2.926
295.51	2.953
296.35	2.981
297.17	3.005
298.05	3.027
298.86	3.052
299.72	3.082
300.56	3.117
301.4	3.148
302.25	3.178
303.09	3.208
303.93	3.238
304.77	3.265
305.62	3.293
306.46	3.32
307.3	3.35
308.15	3.378
308.99	3.408
309.83	3.435
310.67	3.462
311.52	3.495
312.36	3.523
313.2	3.555
314.04	3.586
314.89	3.61
315.73	3.635
316.57	3.662
317.42	3.692
318.26	3.722
319.1	3.744
319.94	3.772
320.79	3.796
321.63	3.821
322.47	3.846
323.31	3.868
324.16	3.887
325	3.906
325.84	3.922
326.68	3.941
327.53	3.958
328.37	3.974
329.21	3.991
330.06	4.002
330.9	4.015
331.74	4.026
332.58	4.035
333.43	4.043
334.27	4.054
335.11	4.056
335.95	4.065
336.8	4.067
337.64	4.067
338.48	4.062
339.33	4.054
340.17	4.04
341.01	4.029
341.85	4.002
342.7	3.994
343.54	3.977
344.38	3.961
345.22	3.939
346.07	3.925
346.91	3.903
347.75	3.884
348.59	3.862
349.44	3.84
350.28	3.818
351.12	3.794
351.97	3.772
352.81	3.75
353.65	3.728
354.49	3.701
355.34	3.679
356.18	3.662
357.02	3.649
357.86	3.635
358.71	3.624
359.55	3.616
360.39	3.61
361.24	3.61
362.08	3.61
362.92	3.616
363.76	3.621
364.61	3.629
365.45	3.638
366.29	3.646
367.13	3.651
367.98	3.662
368.82	3.673
369.66	3.684
370.51	3.695
371.35	3.706
372.19	3.717
373.03	3.731
373.88	3.75
374.72	3.764
375.56	3.78
376.4	3.796
377.25	3.813
378.09	3.827
378.93	3.837
379.77	3.851
380.62	3.862
381.46	3.873
382.3	3.887
383.15	3.895
383.99	3.906
384.83	3.914
385.67	3.925
386.52	3.931
387.36	3.939
388.2	3.947
389.04	3.955
389.89	3.963
390.73	3.969
391.57	3.977
392.42	3.983
393.26	3.991
394.1	3.994
394.94	4.002
395.79	4.004
396.63	4.01
397.47	4.013
398.31	4.015
399.16	4.013
400	4.01
400.84	4.002
401.68	3.983
402.53	3.952
403.37	3.887
404.21	3.805
405.06	3.717
405.9	3.569
406.74	3.465
407.58	3.394
408.43	3.317
409.27	3.26
410.11	3.2
