Uv/Vis Spectrum: Butane, 2,2'-thiobis-
Formula: C8H18S
CAS: 626-26-6
Boiling point: 165
Instrument: unknown
Origin: INSTITUTE OF ENERGY PROBLEMS OF CHEMICAL PHYSICS, RAS
Wavelength (nm)	Logarithm epsilon
206.85	3.158
207.02	3.162
207.19	3.166
207.36	3.17
207.53	3.174
207.7	3.178
207.87	3.183
208.05	3.187
208.22	3.191
208.39	3.195
208.56	3.199
209.41	3.224
210.27	3.245
211.13	3.257
211.98	3.266
212.84	3.27
213.69	3.27
214.55	3.266
215.41	3.261
216.26	3.245
217.12	3.228
217.97	3.207
218.83	3.17
219.69	3.124
220.54	3.066
221.4	3.004
222.25	2.946
223.11	2.883
223.96	2.834
224.82	2.804
225.68	2.742
226.53	2.684
227.39	2.626
228.24	2.576
229.1	2.518
229.96	2.464
230.81	2.401
231.67	2.347
232.52	2.306
233.38	2.264
234.24	2.219
235.09	2.173
235.95	2.14
236.8	2.102
237.66	2.065
238.51	2.032
239.37	2.003
240.23	1.974
241.08	1.949
241.94	1.924
242.79	1.895
243.65	1.865
244.51	1.841
245.36	1.807
246.22	1.782
247.07	1.749
247.93	1.72
248.79	1.683
249.64	1.645
250.5	1.608
251.35	1.566
252.21	1.521
253.06	1.462
253.92	1.404
254.78	1.342
255.63	1.267
256.49	1.188
257.34	1.093
258.2	1.005
259.06	0.922
259.91	0.848
260.77	0.781
261.62	0.715
262.48	0.665
263.34	0.619
264.19	0.569
265.05	0.536
265.9	0.49
266.76	0.461
267.61	0.424
268.47	0.395
269.33	0.357
270.18	0.332
271.04	0.303
271.89	0.283
272.75	0.262
273.61	0.241
274.46	0.22
275.32	0.199
276.17	0.183
277.03	0.162
277.89	0.15
278.74	0.137
279.6	0.12
280.45	0.108
281.31	0.096
282.16	0.079
