Uv/Vis Spectrum: 1,3-Dihydro-4-methyl-2H-1,5-benzodiazepin-2-one
Formula: C10H10N2O
CAS: 6276-48-8
Melting point: 148
Instrument: Specord UV-Vis
Origin: INSTITUTE OF ENERGY PROBLEMS OF CHEMICAL PHYSICS, RAS
Wavelength (nm)	Logarithm epsilon
203.29	4.66
203.502	4.661
205.002	4.668
206.502	4.677
208.002	4.688
209.502	4.7
211.002	4.711
212.502	4.719
214.002	4.723
215.502	4.72
217.002	4.71
218.502	4.693
220.002	4.669
221.502	4.639
223.002	4.607
224.502	4.574
225.941	4.543
227.441	4.516
228.941	4.49
230.441	4.463
231.941	4.436
233.441	4.408
234.941	4.378
236.441	4.348
237.941	4.316
239.441	4.282
240.941	4.248
242.441	4.212
243.941	4.176
245.441	4.139
246.941	4.103
248.441	4.068
249.941	4.035
251.441	4.005
252.941	3.978
254.441	3.955
255.941	3.938
257.441	3.926
258.941	3.919
260.441	3.916
261.941	3.917
263.409	3.921
264.909	3.919
266.409	3.925
267.909	3.933
269.409	3.94
270.909	3.942
272.409	3.94
273.909	3.931
275.409	3.917
276.909	3.899
278.409	3.88
278.59	3.878
280.09	3.863
281.59	3.849
283.09	3.838
284.59	3.832
286.09	3.829
287.59	3.83
289.09	3.834
290.59	3.838
291.95	3.842
293.45	3.846
294.95	3.853
296.45	3.857
297.95	3.857
299.45	3.853
300.95	3.845
302.45	3.835
303.95	3.824
305.45	3.812
306.95	3.8
308.45	3.787
309.95	3.772
311.45	3.756
312.95	3.737
314.382	3.723
315.882	3.703
317.382	3.683
318.882	3.663
320.382	3.644
321.882	3.624
323.382	3.604
324.882	3.583
326.382	3.562
327.882	3.541
329.382	3.518
330.882	3.496
332.382	3.472
333.882	3.448
335.382	3.424
336.882	3.398
338.382	3.373
339.882	3.348
341.382	3.322
342.882	3.296
344.382	3.271
345.882	3.246
347.382	3.222
348.882	3.199
350.382	3.178
351.882	3.158
353.382	3.14
354.882	3.125
356.382	3.112
357.882	3.102
