Uv/Vis Spectrum: 2,4-Heptadiene
Formula: C7H12
CAS: 628-72-8
Boiling point: 108
Instrument: n.i.g.
Origin: INSTITUTE OF ENERGY PROBLEMS OF CHEMICAL PHYSICS, RAS
Wavelength (nm)	Logarithm epsilon
222.19	2.671
222.44	2.669
222.69	2.669
222.95	2.666
223.21	2.666
223.46	2.664
223.72	2.664
223.97	2.662
224.22	2.662
224.48	2.659
224.74	2.659
224.99	2.657
225.25	2.657
226.01	2.65
226.78	2.647
229.07	2.627
229.84	2.624
230.6	2.614
231.37	2.603
232.13	2.595
232.9	2.586
235.19	2.554
235.96	2.541
236.72	2.525
237.49	2.516
238.13	2.503
239.54	2.479
241.31	2.451
242.07	2.439
242.84	2.427
243.6	2.41
244.37	2.399
245.13	2.388
246.55	2.362
247.84	2.34
248.96	2.321
249.72	2.305
250.49	2.294
251.2	2.281
251.85	2.271
252.61	2.26
253.44	2.252
254.14	2.245
255.08	2.24
255.84	2.24
256.61	2.24
257.5	2.229
258.14	2.208
258.36	2.177
258.58	2.141
258.88	2.114
259.67	2.083
260.44	2.055
261.51	2.025
262.73	1.993
263.5	1.97
264.26	1.946
264.87	1.932
265.6	1.914
266.56	1.893
267.21	1.884
268.08	1.879
268.89	1.876
269.7	1.874
270.72	1.873
271.67	1.873
272.68	1.879
273.44	1.893
274.16	1.898
274.97	1.893
275.74	1.879
276.5	1.867
277.26	1.864
278.03	1.869
278.8	1.879
279.56	1.893
280.3	1.903
281.03	1.91
281.76	1.919
282.56	1.928
283.44	1.937
284.24	1.944
286.44	1.966
287.98	1.981
288.74	1.993
289.5	2.004
290.24	2.014
291.04	2.027
291.77	2.038
292.51	2.047
293.46	2.063
294.1	2.074
294.86	2.083
295.8	2.1
296.89	2.118
297.92	2.134
298.69	2.15
299.45	2.165
300.26	2.183
300.98	2.194
301.86	2.21
302.51	2.221
303.27	2.234
304.04	2.24
305.15	2.252
306.33	2.265
307.13	2.272
307.86	2.272
308.63	2.271
309.39	2.265
310.12	2.254
310.93	2.228
311.69	2.194
312.45	2.157
313.34	2.122
314.29	2.096
315.53	2.069
316.27	2.052
317.07	2.038
317.81	2.025
318.57	2.014
319.41	2
320.14	1.984
320.87	1.97
321.97	1.947
322.85	1.929
323.93	1.907
324.69	1.893
325.4	1.875
325.99	1.862
326.76	1.838
327.27	1.816
327.75	1.8
328.48	1.771
329.29	1.744
330.01	1.72
330.61	1.701
331.58	1.676
332.35	1.657
333.11	1.632
