Uv/Vis Spectrum: Diethyl diselenide
Formula: C4H10Se2
CAS: 628-39-7
Instrument: n.i.g.
Origin: INSTITUTE OF ENERGY PROBLEMS OF CHEMICAL PHYSICS, RAS
Wavelength (nm)	Logarithm epsilon
207.89	2.938
208.61	2.891
210.28	2.812
211.92	2.76
213.56	2.709
215.07	2.671
219.38	2.563
223.68	2.483
227.99	2.432
232.3	2.361
234.66	2.312
236.6	2.263
238.5	2.236
240.91	2.213
245.22	2.203
249.52	2.206
253.83	2.213
258.13	2.247
261.84	2.29
264.4	2.343
266.75	2.385
271.05	2.445
275.36	2.493
279.67	2.53
283.97	2.563
288.28	2.584
292.58	2.597
296.89	2.601
301.2	2.597
305.5	2.584
309.81	2.563
314.11	2.533
318.42	2.506
322.73	2.466
327.03	2.425
331.34	2.378
335.65	2.331
339.95	2.277
344.26	2.216
348.56	2.166
352.87	2.102
357.18	2.044
361.48	1.98
365.79	1.913
370.1	1.849
374.4	1.788
378.71	1.724
383.01	1.656
387.32	1.586
391.63	1.515
395.93	1.434
400.24	1.356
404.55	1.275
408.85	1.201
