Uv/Vis Spectrum: 1-Propanone, 1-(4-chlorophenyl)-
Formula: C9H9ClO
CAS: 6285-05-8
Melting point: 37.3
Boiling point: 135/ 31 mm;
Instrument: unknown
Origin: INSTITUTE OF ENERGY PROBLEMS OF CHEMICAL PHYSICS, RAS
Wavelength (nm)	Logarithm epsilon
253.74	3.171
256.14	3.139
258.27	3.096
260.14	3.032
261.74	2.968
263.61	2.872
265.21	2.798
266.82	2.723
268.15	2.638
269.75	2.563
271.35	2.499
273.49	2.425
275.62	2.371
277.76	2.318
279.89	2.265
282.3	2.211
284.43	2.169
287.37	2.116
289.77	2.094
292.44	2.062
294.57	2.03
296.98	2.009
299.11	1.977
301.51	1.956
303.91	1.956
306.85	1.934
309.25	1.934
311.92	1.924
314.32	1.913
316.99	1.892
319.4	1.892
322.06	1.86
324.47	1.838
328.47	1.796
330.61	1.753
333.54	1.7
335.68	1.657
338.35	1.583
340.48	1.529
342.88	1.444
345.02	1.391
347.15	1.305
349.02	1.252
351.69	1.146
353.56	1.092
355.96	0.986
357.56	0.922
360.23	0.794
361.83	0.73
363.97	0.613
365.57	0.549
367.71	0.431
369.04	0.346
