Uv/Vis Spectrum: n-Butyl disulfide
Formula: C8H18S2
CAS: 629-45-8
Boiling point: 117(20); 85(3)
Instrument: Beckman DK 2
Origin: INSTITUTE OF ENERGY PROBLEMS OF CHEMICAL PHYSICS, RAS
Wavelength (nm)	Logarithm epsilon
222.037	2.39105
222.371	2.51414
222.533	2.50814
222.68	2.50214
223.139	2.502
223.595	2.48937
223.906	2.48927
224.215	2.47668
224.363	2.47664
224.983	2.46455
225.44	2.45787
225.589	2.45782
226.06	2.44578
226.355	2.43914
226.813	2.43305
227.287	2.43291
227.582	2.42628
227.89	2.41428
228.348	2.4076
228.821	2.4015
229.279	2.39541
229.575	2.39533
230.346	2.40104
230.969	2.40681
231.429	2.41322
231.578	2.41912
231.89	2.42498
232.351	2.43139
232.826	2.43719
233.123	2.44365
233.435	2.44951
234.207	2.46177
234.519	2.46763
234.831	2.47348
236.675	2.51637
236.988	2.52223
237.3	2.52868
237.909	2.5404
238.073	2.54689
238.533	2.55271
238.845	2.55856
239.143	2.56502
239.307	2.57092
239.619	2.57678
240.079	2.58318
240.391	2.58904
240.688	2.5955
241.163	2.60131
241.46	2.60717
242.083	2.61353
242.856	2.6252
243.316	2.6316
243.776	2.63741
244.547	2.64313
245.17	2.64949
245.468	2.65535
246.09	2.66112
247.01	2.66738
248.092	2.67301
248.715	2.67937
250.093	2.6849
253.633	2.68979
256.86	2.68286
258.25	2.67649
259.167	2.66967
259.774	2.66949
261.164	2.65657
262.082	2.6563
262.851	2.65011
263.47	2.63743
263.928	2.63134
264.845	2.62511
265.466	2.61838
265.923	2.61229
266.381	2.6062
266.84	2.60606
267.461	2.59933
268.996	2.57447
269.602	2.56774
270.059	2.5557
270.222	2.55565
270.678	2.54302
271.299	2.53688
271.758	2.53674
272.216	2.53006
272.526	2.52401
272.983	2.51138
273.442	2.51124
273.899	2.50515
274.357	2.49847
275.124	2.47979
275.583	2.47965
276.054	2.4676
276.202	2.46756
276.659	2.45493
277.117	2.44884
277.576	2.4487
277.886	2.44206
278.196	2.43601
278.654	2.42992
279.273	2.41724
279.584	2.41715
280.042	2.41046
280.647	2.39838
281.266	2.3857
281.576	2.37965
281.724	2.37961
282.033	2.36702
282.491	2.36093
282.95	2.36079
283.259	2.35415
283.569	2.34811
283.863	2.33552
284.337	2.33538
284.942	2.3227
285.09	2.32265
288.158	2.26043
288.468	2.2538
288.616	2.25375
289.088	2.24766
289.383	2.24162
289.692	2.22903
290.916	2.20426
291.079	2.20421
291.373	2.19162
291.683	2.18499
292.141	2.1789
292.304	2.17885
292.597	2.16626
292.76	2.16621
293.218	2.16012
293.528	2.15408
293.837	2.14149
293.985	2.14144
294.132	2.13545
294.441	2.12881
294.751	2.12276
295.207	2.10418
295.355	2.10413
295.664	2.0975
295.973	2.0855
296.43	2.07287
296.888	2.06678
297.051	2.06673
297.653	2.04155
297.964	2.04146
298.274	2.03541
298.582	2.02282
298.731	2.02278
299.039	2.01019
299.349	2.00414
299.806	1.99151
300.1	1.97952
300.262	1.97947
300.571	1.96688
300.719	1.96684
301.176	1.9542
301.486	1.94816
302.251	1.92293
302.561	1.91689
302.855	1.9043
303.016	1.8983
303.164	1.89826
303.474	1.89221
304.091	1.86703
304.24	1.86699
304.549	1.86095
304.696	1.85435
305.152	1.83577
305.315	1.83572
305.608	1.82373
305.771	1.82368
306.227	1.8045
306.375	1.80446
306.845	1.78587
307.139	1.77388
307.302	1.77383
307.596	1.76124
307.758	1.75524
307.906	1.7552
309.435	1.6988
309.597	1.6928
309.745	1.69275
310.055	1.68671
310.819	1.65553
311.584	1.63031
311.732	1.63026
312.041	1.61827
312.189	1.61822
312.645	1.59964
312.953	1.58705
313.101	1.587
313.263	1.58041
313.41	1.57441
313.72	1.56837
314.174	1.54324
314.484	1.53719
314.631	1.5312
314.794	1.53115
315.088	1.51856
315.397	1.51252
316.015	1.48734
316.163	1.4873
316.325	1.4813
316.927	1.45612
317.09	1.45607
317.839	1.4249
318.002	1.42485
318.766	1.39427
319.222	1.37569
319.37	1.37564
319.84	1.35705
319.987	1.35046
320.134	1.34447
320.296	1.33787
320.444	1.33783
320.591	1.33183
321.06	1.30729
321.208	1.30725
321.517	1.29466
321.664	1.28866
321.825	1.28207
321.973	1.28202
322.738	1.25085
324.107	1.20759
324.269	1.20754
324.577	1.189
324.725	1.18895
325.035	1.18231
325.637	1.15773
325.947	1.15169
326.095	1.15164
326.404	1.13905
326.566	1.13305
326.861	1.12642
327.17	1.12037
327.333	1.12032
327.789	1.10174
327.937	1.1017
328.394	1.08906
328.556	1.08901
329.012	1.07043
329.323	1.07033
329.779	1.0577
329.928	1.05766
330.384	1.04502
330.694	1.03897
331.315	1.03284
