Uv/Vis Spectrum: 2-(1,2,2,2-Tetrafluoriethyl)-4(1H)-quinazolinone
Formula: C10H6F4N2O
CAS: 63099-85-4
Melting point: 210-212
Instrument: Hitachi EPS-3T
Origin: INSTITUTE OF ENERGY PROBLEMS OF CHEMICAL PHYSICS, RAS
Wavelength (nm)	Logarithm epsilon
223.965	3.275
224.022	3.282
224.522	3.361
225.022	3.419
225.522	3.438
226.022	3.426
226.365	3.419
226.403	3.417
226.903	3.4
227.403	3.394
227.903	3.393
228.403	3.4
228.898	3.422
229.398	3.47
229.898	3.499
230.398	3.513
230.898	3.517
231.398	3.513
231.898	3.505
232.398	3.493
232.898	3.48
233.398	3.466
233.433	3.464
233.933	3.452
234.433	3.438
234.933	3.424
235.433	3.413
235.933	3.409
236.433	3.414
236.933	3.431
237.433	3.463
237.933	3.515
238.139	3.539
238.639	3.627
239.139	3.696
239.639	3.745
240.139	3.775
240.639	3.788
241.139	3.787
242.074	3.774
242.728	3.779
242.731	3.779
243.231	3.802
243.731	3.812
244.231	3.811
244.731	3.8
245.231	3.784
245.731	3.764
246.231	3.743
246.747	3.726
247.247	3.707
247.747	3.686
248.247	3.663
248.747	3.641
249.247	3.62
249.747	3.601
250.247	3.587
250.747	3.576
251.247	3.571
251.747	3.571
252.247	3.578
252.747	3.59
253.247	3.61
253.747	3.636
254.247	3.668
254.747	3.706
255.204	3.75
255.704	3.792
256.204	3.829
256.704	3.863
257.204	3.898
257.704	3.934
258.204	3.971
258.704	4.01
259.204	4.051
259.704	4.091
260.204	4.129
260.704	4.164
261.204	4.194
261.704	4.218
262.204	4.233
262.704	4.24
263.204	4.238
263.704	4.228
264.204	4.211
264.704	4.192
265.204	4.176
