Uv/Vis Spectrum: 2,3-dihydro-6-hydroxy-5-(1H-indol-3-yl)-2-thioxo-4(1H)-pyrimidinone
Formula: C12H9N3O2S
CAS: 63291-74-7
Melting point: 360(dec.)
Instrument: unknown
Origin: INSTITUTE OF ENERGY PROBLEMS OF CHEMICAL PHYSICS, RAS
Wavelength (nm)	Logarithm epsilon
204.374	4.52
204.874	4.54
205.374	4.55
205.874	4.552
206.374	4.548
206.874	4.539
207.374	4.527
207.874	4.512
208.374	4.497
208.874	4.48
209.374	4.464
209.874	4.448
210.374	4.432
210.874	4.418
211.374	4.404
211.874	4.39
212.374	4.377
212.874	4.365
213.374	4.354
213.874	4.342
214.374	4.331
214.874	4.321
215.374	4.311
215.857	4.302
216.357	4.295
216.857	4.288
217.357	4.281
217.857	4.275
218.357	4.27
218.857	4.265
219.357	4.262
219.857	4.26
220.357	4.259
220.857	4.259
221.357	4.26
221.857	4.262
222.357	4.265
222.857	4.268
223.357	4.271
223.857	4.275
224.357	4.279
224.857	4.282
225.357	4.285
225.857	4.287
226.357	4.288
226.857	4.288
227.357	4.288
227.857	4.285
228.357	4.282
228.857	4.277
229.357	4.271
229.857	4.264
230.357	4.256
230.857	4.247
231.357	4.238
231.857	4.229
231.998	4.227
233.498	4.203
234.998	4.181
236.498	4.159
237.998	4.136
239.498	4.112
240.998	4.088
242.498	4.065
243.998	4.042
245.498	4.021
246.998	4.002
248.498	3.985
249.998	3.971
251.498	3.959
252.998	3.949
254.498	3.94
255.998	3.933
257.498	3.927
258.998	3.922
260.498	3.918
261.998	3.915
263.498	3.913
264.998	3.913
266.498	3.914
267.777	3.918
269.277	3.924
270.777	3.93
272.277	3.937
273.777	3.944
275.277	3.952
276.777	3.961
278.277	3.971
279.777	3.982
281.277	3.994
282.777	4.008
284.252	4.023
285.752	4.042
287.252	4.062
288.752	4.08
290.252	4.092
291.752	4.097
293.252	4.096
294.752	4.088
296.252	4.075
297.752	4.06
299.252	4.043
300.56	4.029
302.06	4.013
303.56	3.998
305.06	3.981
306.56	3.963
