Uv/Vis Spectrum: 8-acetyl-1,8-dihydropyrrolo[2,3-b] indole-3- carbonitrile
Formula: C13H9N3O
CAS: 63291-78-1
Melting point: 238 (dec.)
Instrument: unknown
Origin: INSTITUTE OF ENERGY PROBLEMS OF CHEMICAL PHYSICS, RAS
Wavelength (nm)	Logarithm epsilon
211.897	2.395
213.897	2.387
215.897	2.378
217.897	2.369
219.897	2.361
221.897	2.353
223.897	2.346
225.897	2.339
227.897	2.331
229.897	2.322
231.897	2.313
233.897	2.304
235.897	2.296
237.897	2.29
239.897	2.286
241.897	2.286
243.897	2.288
245.897	2.292
248.026	2.295
250.026	2.297
252.026	2.299
254.026	2.301
256.026	2.297
258.026	2.286
260.026	2.265
261.51	2.245
262.886	2.225
264.542	2.201
266.542	2.178
268.542	2.153
270.542	2.127
272.542	2.103
274.542	2.086
276.542	2.077
278.542	2.078
280.542	2.086
282.542	2.097
284.542	2.107
286.972	2.117
288.628	2.129
290.628	2.142
292.628	2.153
294.628	2.165
296.628	2.177
298.628	2.189
300.628	2.201
302.628	2.211
304.628	2.218
306.628	2.222
308.628	2.221
310.628	2.213
312.628	2.2
314.628	2.181
316.628	2.156
318.628	2.128
320.348	2.099
322.972	2.063
324.972	2.042
326.972	2.02
328.972	1.994
330.972	1.965
332.972	1.933
334.972	1.9
336.972	1.867
338.972	1.836
340.972	1.809
342.972	1.787
344.972	1.77
346.972	1.758
348.972	1.752
350.972	1.75
352.972	1.752
354.972	1.755
356.972	1.76
358.972	1.765
360.972	1.769
362.972	1.773
364.972	1.776
366.918	1.779
368.667	1.783
370.667	1.787
372.667	1.792
374.667	1.797
376.667	1.802
378.667	1.807
380.667	1.812
382.667	1.818
384.667	1.824
386.667	1.829
388.667	1.834
390.667	1.838
392.667	1.841
394.667	1.843
396.667	1.845
398.667	1.844
400.667	1.843
402.667	1.841
404.667	1.837
406.667	1.832
408.667	1.827
410.667	1.82
412.667	1.814
414.667	1.807
416.667	1.8
418.667	1.793
420.667	1.787
422.667	1.782
423.918	1.777
