Uv/Vis Spectrum: Urea, tetramethyl-
Formula: C5H12N2O
CAS: 632-22-4
Melting point: -1.2
Boiling point: 176.5
Instrument: n.i.g.
Origin: INSTITUTE OF ENERGY PROBLEMS OF CHEMICAL PHYSICS, RAS
Wavelength (nm)	Logarithm epsilon
210.64	2.20639
210.717	2.2336
210.795	2.26001
210.882	2.28003
210.96	2.30644
211.037	2.33365
211.124	2.36007
211.201	2.38647
211.279	2.40649
211.356	2.4337
211.445	2.44654
211.522	2.47375
211.599	2.49376
211.687	2.52018
211.764	2.5402
211.843	2.55383
211.93	2.58024
212.008	2.60026
212.086	2.62028
212.173	2.6403
212.251	2.66032
212.329	2.68034
212.417	2.70036
212.495	2.72038
212.572	2.7404
212.66	2.76043
212.739	2.77405
212.816	2.79407
212.904	2.8141
212.983	2.82773
213.06	2.84774
213.149	2.86138
213.226	2.88779
213.304	2.90142
213.393	2.91425
213.471	2.92788
213.55	2.94151
213.637	2.96153
213.716	2.97436
213.794	2.98799
213.882	3.00801
213.96	3.02164
214.039	3.03447
214.117	3.0481
214.206	3.06173
214.284	3.07536
214.363	3.08819
214.451	3.10182
214.529	3.11545
214.697	3.13552
214.776	3.14196
214.854	3.15559
214.943	3.16842
215.022	3.17566
215.101	3.1821
215.269	3.19578
215.349	3.19583
215.438	3.20228
215.595	3.22234
215.684	3.22879
215.843	3.23607
215.933	3.23612
216.259	3.25629
216.339	3.25634
216.677	3.26294
217.164	3.26962
217.751	3.27716
218.499	3.27042
218.749	3.26418
218.909	3.25789
219.078	3.2508
219.159	3.24446
219.329	3.23817
219.499	3.23108
219.659	3.22478
219.739	3.21844
219.83	3.20492
219.99	3.19862
220.08	3.19149
220.33	3.17885
220.49	3.17176
220.581	3.16542
220.661	3.15908
220.742	3.14555
220.992	3.13212
221.082	3.12578
221.242	3.11949
221.333	3.11235
221.413	3.10601
221.494	3.09248
221.744	3.07985
221.834	3.07271
221.915	3.06637
221.995	3.05923
222.165	3.05294
222.245	3.04659
222.335	3.03946
222.416	3.03312
222.496	3.02678
222.577	3.01324
222.667	3.00691
222.917	2.99348
222.998	2.98713
223.078	2.97999
223.168	2.97365
223.249	2.96731
223.329	2.95378
223.42	2.94744
223.58	2.94035
223.67	2.93401
223.751	2.92048
223.831	2.91414
224.001	2.90785
224.082	2.89432
224.172	2.88798
224.253	2.88084
224.333	2.8745
224.673	2.85473
224.835	2.83486
224.925	2.82852
225.005	2.82138
225.085	2.81503
225.257	2.79516
225.337	2.78882
225.417	2.78168
225.507	2.77534
225.758	2.76191
225.839	2.74838
225.92	2.73565
226.01	2.72851
226.17	2.72222
226.421	2.69601
226.512	2.68248
226.672	2.67619
226.762	2.66905
226.843	2.66271
226.924	2.64918
227.095	2.62931
227.175	2.62296
227.265	2.61663
227.425	2.60953
227.516	2.59681
227.597	2.58967
227.678	2.57693
227.768	2.5698
227.849	2.55706
227.929	2.54992
228.18	2.52371
228.35	2.51742
228.431	2.51028
228.512	2.49675
228.603	2.48402
228.683	2.47688
228.763	2.47054
228.854	2.45701
229.014	2.45072
229.266	2.4245
229.356	2.41737
229.436	2.41103
229.607	2.39116
229.688	2.37763
229.769	2.36489
229.939	2.3578
230.11	2.33793
230.272	2.31806
230.362	2.31172
230.523	2.29185
230.613	2.28551
230.694	2.27198
230.774	2.26564
231.025	2.25221
231.106	2.23868
231.196	2.22595
231.277	2.21881
231.358	2.20527
231.528	2.19898
231.608	2.19264
231.779	2.17277
231.859	2.16563
231.95	2.1593
232.031	2.14576
232.112	2.13303
232.202	2.12589
232.283	2.11316
232.453	2.10607
232.533	2.09973
232.704	2.07986
232.784	2.07352
232.865	2.06638
232.956	2.05365
233.287	2.0203
233.459	2.00043
233.54	1.9869
233.709	1.98061
233.79	1.97427
233.87	1.96712
234.042	1.94086
234.123	1.92733
234.204	1.9138
234.374	1.90751
234.455	1.89398
234.545	1.88764
234.625	1.8813
234.796	1.86143
234.956	1.85434
235.047	1.84161
235.299	1.8146
235.38	1.80187
235.46	1.79473
235.711	1.76851
235.963	1.7423
236.053	1.73517
236.213	1.72887
236.384	1.709
236.465	1.69547
236.555	1.68914
236.715	1.68284
236.796	1.66931
236.968	1.64944
237.048	1.6423
237.299	1.61609
237.39	1.60256
237.47	1.59622
237.642	1.57635
237.723	1.56282
237.803	1.55647
237.893	1.55014
237.974	1.5366
238.224	1.52317
238.306	1.50325
238.396	1.49692
238.476	1.49057
238.557	1.48343
238.728	1.46356
238.808	1.45722
238.899	1.44369
238.98	1.43096
239.23	1.41753
239.401	1.39766
239.482	1.38413
239.642	1.37783
239.894	1.35082
239.984	1.34449
240.064	1.33815
240.145	1.331
240.487	1.29126
240.568	1.27853
240.648	1.27139
240.82	1.25152
240.9	1.24518
240.99	1.23884
241.152	1.21178
241.402	1.19915
241.573	1.17928
241.654	1.17214
241.744	1.1658
241.825	1.15227
241.905	1.14593
241.995	1.13959
242.157	1.11971
242.237	1.11257
242.327	1.10624
242.408	1.0927
242.488	1.08636
242.579	1.08002
242.659	1.07288
242.74	1.05935
242.911	1.03948
242.991	1.03314
243.082	1.01961
243.163	1.00688
243.244	0.999739
243.334	0.987009
243.415	0.979871
243.496	0.967136
243.666	0.960047
243.837	0.940178
243.917	0.933836
243.998	0.920306
244.089	0.907578
244.34	0.880568
244.502	0.8543
244.671	0.860793
244.672	0.854403
244.752	0.840871
244.843	0.828144
244.924	0.821002
245.085	0.801129
245.255	0.794836
245.336	0.78131
245.589	0.735128
245.839	0.728086
245.929	0.71536
246.011	0.701827
246.09	0.70187
246.18	0.695534
246.182	0.681955
246.263	0.668423
246.343	0.662087
246.433	0.655743
246.513	0.648604
246.594	0.635876
246.685	0.628736
246.765	0.62239
246.845	0.616055
246.936	0.602527
247.016	0.596179
247.097	0.582654
247.188	0.576307
247.268	0.56278
247.349	0.556435
247.44	0.542913
247.52	0.536571
247.6	0.52943
247.69	0.523096
247.772	0.509552
247.852	0.49603
248.024	0.476165
248.184	0.469866
248.274	0.456336
248.355	0.443607
248.436	0.436465
248.527	0.416541
248.607	0.410203
248.688	0.403858
248.856	0.41674
248.86	0.376796
248.94	0.370458
249.108	0.384138
249.188	0.376996
249.19	0.364213
249.28	0.350694
249.36	0.350732
249.362	0.330779
249.531	0.33726
249.532	0.324488
249.613	0.310948
249.694	0.29741
249.785	0.284679
249.865	0.27754
249.946	0.257631
250.037	0.251297
250.196	0.257775
250.197	0.244994
250.287	0.23787
250.369	0.217931
250.45	0.204391
