Uv/Vis Spectrum: benzaldehyde, O-(4-chlorobenzoyl) oxime
Formula: C14H10ClNO2
CAS: 63561-63-7
Melting point: 116
Instrument: Jasco ORD/UV-5
Origin: INSTITUTE OF ENERGY PROBLEMS OF CHEMICAL PHYSICS, RAS
Wavelength (nm)	Logarithm epsilon
217.136	4.01
217.255	4.001
217.755	3.99
218.255	3.98
218.755	3.973
219.255	3.966
219.755	3.962
220.255	3.959
220.755	3.957
221.255	3.956
221.755	3.956
222.255	3.958
222.755	3.96
223.255	3.964
223.755	3.968
224.255	3.973
224.755	3.979
225.255	3.985
225.755	3.992
226.255	4
226.755	4.008
227.255	4.017
227.755	4.026
228.255	4.035
228.755	4.045
229.255	4.055
229.755	4.065
230.255	4.076
230.755	4.086
231.255	4.097
231.755	4.108
232.255	4.119
232.755	4.13
233.255	4.142
233.755	4.153
234.255	4.164
234.755	4.176
235.255	4.187
235.755	4.198
236.255	4.21
236.755	4.221
237.255	4.232
237.755	4.243
238.255	4.254
238.755	4.264
239.255	4.275
239.755	4.286
240.255	4.296
240.755	4.306
241.255	4.316
241.755	4.326
242.255	4.336
242.755	4.346
243.255	4.355
243.755	4.364
244.255	4.374
244.755	4.382
245.255	4.391
245.755	4.4
246.255	4.408
246.755	4.416
247.255	4.424
247.755	4.432
248.255	4.439
248.755	4.446
249.255	4.454
249.755	4.46
250.255	4.467
250.755	4.473
251.255	4.48
251.755	4.486
252.255	4.491
252.755	4.497
253.255	4.502
253.755	4.507
254.255	4.512
254.755	4.516
255.255	4.52
255.755	4.524
256.255	4.528
256.755	4.532
257.255	4.535
257.755	4.538
258.255	4.54
258.755	4.543
259.255	4.545
259.755	4.547
260.255	4.548
260.755	4.549
261.255	4.55
261.755	4.551
262.255	4.551
262.755	4.551
263.255	4.55
263.755	4.549
264.255	4.548
264.755	4.547
265.255	4.545
265.755	4.542
266.255	4.54
266.755	4.537
267.255	4.533
267.755	4.529
268.255	4.525
268.755	4.52
269.255	4.515
269.755	4.509
270.255	4.503
270.755	4.497
271.255	4.49
271.755	4.483
272.255	4.475
272.755	4.467
273.255	4.458
273.755	4.448
274.255	4.439
274.755	4.428
275.255	4.417
275.755	4.406
276.255	4.394
276.755	4.382
277.255	4.369
277.755	4.355
278.255	4.341
278.755	4.326
279.255	4.311
279.755	4.295
280.255	4.278
280.755	4.261
281.255	4.244
281.755	4.225
282.255	4.206
282.755	4.186
283.255	4.166
283.755	4.144
284.255	4.123
284.755	4.1
285.255	4.076
285.755	4.052
286.255	4.027
286.755	4.001
287.255	3.974
287.755	3.947
288.255	3.918
288.755	3.888
289.255	3.858
289.755	3.826
290.255	3.793
290.755	3.759
291.255	3.724
291.755	3.688
292.255	3.65
292.755	3.611
293.255	3.571
293.755	3.529
294.255	3.485
294.755	3.44
295.255	3.393
295.755	3.344
296.255	3.293
296.755	3.24
297.255	3.184
297.755	3.127
298.255	3.067
298.755	3.004
299.255	2.939
299.755	2.87
300.255	2.799
300.755	2.724
