Uv/Vis Spectrum: 2-(2,6-dinitrophenoxy)-3,5,7-trimethyl-2,4,6-cycloheptatrien-1-one
Formula: C16H14N2O6
CAS: 63507-75-5
Melting point: 180
Instrument: Specord UV-Vis
Origin: INSTITUTE OF ENERGY PROBLEMS OF CHEMICAL PHYSICS, RAS
Wavelength (nm)	Logarithm epsilon
261.22	4.256
262.22	4.227
263.22	4.195
264.22	4.162
265.22	4.128
266.22	4.095
267.22	4.061
268.22	4.029
269.22	3.999
270.22	3.971
271.152	3.942
272.152	3.923
273.152	3.905
274.152	3.889
275.152	3.874
276.152	3.861
277.152	3.849
278.152	3.838
279.152	3.828
280.152	3.82
281.152	3.812
282.152	3.806
283.152	3.801
284.152	3.797
285.152	3.794
286.152	3.791
287.152	3.79
288.152	3.79
289.152	3.79
290.152	3.791
291.152	3.793
292.152	3.796
293.152	3.799
294.152	3.803
295.152	3.808
296.152	3.813
297.152	3.819
298.152	3.825
299.152	3.832
300.07	3.843
301.07	3.852
302.07	3.863
303.07	3.873
304.07	3.885
305.07	3.896
306.07	3.908
307.07	3.92
308.07	3.932
309.07	3.944
310.07	3.957
311.07	3.969
312.07	3.98
313.07	3.992
314.07	4.003
315.07	4.013
316.07	4.024
317.07	4.033
318.07	4.042
319.07	4.051
320.07	4.058
321.07	4.066
322.07	4.072
323.07	4.078
323.791	4.083
324.791	4.087
325.791	4.09
326.791	4.093
327.791	4.096
328.791	4.098
329.791	4.1
330.791	4.101
331.791	4.103
332.791	4.103
333.791	4.104
334.791	4.104
335.791	4.104
336.791	4.104
337.791	4.103
338.791	4.103
339.791	4.101
340.791	4.1
341.791	4.098
342.791	4.095
343.791	4.093
344.791	4.089
345.791	4.086
346.791	4.082
347.791	4.077
348.791	4.072
349.791	4.067
350.791	4.061
351.791	4.055
352.791	4.048
353.791	4.041
354.791	4.033
355.791	4.025
356.117	4.022
357.117	4.015
358.117	4.006
359.117	3.997
360.117	3.986
361.117	3.974
362.117	3.961
363.117	3.947
364.117	3.933
365.117	3.917
366.117	3.9
367.117	3.883
368.117	3.865
369.117	3.847
370.117	3.828
371.117	3.808
372.117	3.788
373.117	3.767
374.117	3.746
375.117	3.725
376.117	3.703
377.117	3.681
378.117	3.659
379.117	3.637
380.117	3.615
381.117	3.592
382.117	3.57
383.117	3.548
384.117	3.526
385.117	3.504
386.117	3.483
387.117	3.461
388.117	3.441
389.117	3.42
390.117	3.4
391.117	3.381
392.117	3.362
393.117	3.343
394.117	3.326
395.117	3.309
396.117	3.293
397.117	3.278
397.824	3.264
398.824	3.247
399.824	3.23
