Uv/Vis Spectrum: 1,4-Anthracenedione
Formula: C14H8O2
CAS: 635-12-1
Melting point: 216-218
Instrument: Beckman spectrophotometer
Origin: INSTITUTE OF ENERGY PROBLEMS OF CHEMICAL PHYSICS, RAS
Wavelength (nm)	Logarithm epsilon
242.38	4.215
242.78	4.223
243.18	4.227
243.57	4.231
243.97	4.239
244.37	4.243
244.76	4.247
245.16	4.256
245.56	4.26
245.95	4.264
247.14	4.276
248.73	4.297
250.32	4.33
251.91	4.354
253.5	4.371
255.08	4.391
256.67	4.4
258.26	4.4
259.85	4.395
261.43	4.387
263.02	4.358
264.61	4.309
266.2	4.247
267.79	4.157
269.37	4.062
270.96	4.009
272.55	3.997
274.14	3.992
275.72	4.009
277.31	4.029
278.9	4.054
280.49	4.071
282.08	4.075
283.66	4.071
285.25	4.071
286.84	4.071
288.43	4.087
290.01	4.091
291.6	4.087
293.19	4.066
294.78	4.013
296.36	3.951
297.95	3.89
299.54	3.832
301.13	3.787
302.72	3.742
304.3	3.688
305.89	3.643
307.48	3.602
309.07	3.569
310.65	3.519
312.24	3.47
313.83	3.421
315.42	3.371
317.01	3.318
318.59	3.285
320.18	3.265
321.77	3.252
323.36	3.248
324.94	3.248
326.53	3.248
328.12	3.252
329.71	3.269
331.3	3.289
332.88	3.314
334.47	3.318
336.06	3.314
337.65	3.306
339.23	3.289
340.82	3.289
342.41	3.314
344	3.347
345.58	3.376
347.17	3.396
348.76	3.417
350.35	3.417
351.94	3.396
353.52	3.367
355.11	3.33
356.7	3.293
358.29	3.281
359.87	3.273
361.46	3.273
363.05	3.285
364.64	3.293
366.23	3.318
367.81	3.339
369.4	3.355
370.99	3.376
372.58	3.396
374.16	3.417
375.75	3.433
377.34	3.45
378.93	3.458
380.52	3.474
382.1	3.482
383.69	3.499
385.28	3.503
386.87	3.511
388.45	3.519
390.04	3.519
391.63	3.524
393.22	3.524
394.81	3.519
396.39	3.515
397.98	3.499
399.57	3.487
401.16	3.474
402.74	3.454
404.33	3.437
405.92	3.417
407.51	3.396
409.09	3.376
410.68	3.355
412.27	3.33
413.86	3.297
415.45	3.289
417.03	3.26
418.62	3.207
420.21	3.17
421.8	3.129
423.38	3.108
424.97	3.055
426.56	3.014
428.15	2.964
429.74	2.919
431.32	2.866
432.91	2.808
434.5	2.746
436.09	2.713
437.67	2.635
439.26	2.569
440.85	2.508
442.44	2.442
444.03	2.376
445.61	2.306
447.2	2.253
448.79	2.203
450.38	2.154
451.96	2.121
453.55	2.072
455.14	2.035
456.73	1.998
458.31	1.965
459.9	1.936
461.49	1.916
463.08	1.895
464.67	1.874
466.25	1.854
467.84	1.837
469.43	1.817
471.02	1.809
472.6	1.796
474.19	1.78
475.78	1.768
477.37	1.755
478.96	1.739
480.54	1.739
482.13	1.714
483.72	1.71
485.31	1.698
486.89	1.685
488.48	1.673
490.07	1.656
491.66	1.648
493.25	1.636
494.83	1.619
496.42	1.611
498.01	1.599
499.6	1.591
501.18	1.574
502.77	1.566
504.36	1.558
505.95	1.541
507.53	1.537
