Uv/Vis Spectrum: Quinoline, 1,2,3,4-tetrahydro-
Formula: C9H11N
CAS: 635-46-1
Melting point: 20
Boiling point: 251
Instrument: Spectrophotometer SF-4
Origin: INSTITUTE OF ENERGY PROBLEMS OF CHEMICAL PHYSICS, RAS
Wavelength (nm)	Logarithm epsilon
214.506	4.00435
214.765	3.98118
215.043	3.95783
215.33	3.93439
216.045	3.89827
216.246	3.87649
216.642	3.8558
217.571	3.81849
218.668	3.77249
218.858	3.75547
219.24	3.73653
220.14	3.69946
222.563	3.65333
223.386	3.64393
224.293	3.63773
225.777	3.63245
226.302	3.63096
227.183	3.63231
228.064	3.63358
228.946	3.63467
232.551	3.67882
235.54	3.71589
236.716	3.73162
237.087	3.73949
240.192	3.77317
242.709	3.79904
244.251	3.81407
245.449	3.82403
246.935	3.83468
250.957	3.83189
252.645	3.81743
253.956	3.8032
255.137	3.78655
256.433	3.76484
258.517	3.727
259.171	3.70525
259.835	3.68338
260.508	3.66145
261.184	3.63948
262.786	3.60154
263.323	3.57767
263.872	3.55369
264.428	3.52964
264.988	3.50555
266.385	3.46957
266.816	3.44934
267.255	3.4291
267.699	3.40887
268.147	3.38864
268.598	3.36841
269.363	3.32712
269.9	3.30325
270.449	3.27927
271.005	3.25522
271.565	3.23113
273.285	3.19482
274.11	3.17962
275.395	3.16185
276.76	3.14411
277.085	3.14258
278.993	3.14678
279.852	3.14953
280.396	3.1532
284.026	3.18539
285.462	3.20538
286.786	3.22315
293.881	3.29606
295.376	3.30997
296.955	3.323
297.765	3.3228
298.419	3.32293
298.742	3.33614
299.091	3.32306
299.772	3.32319
303.171	3.31072
305.206	3.29334
306.931	3.27493
308.634	3.25004
312.63	3.1705
313.422	3.15111
314.214	3.13162
315.95	3.08694
316.445	3.06605
316.944	3.04505
317.45	3.02397
317.967	3.00287
319.236	2.95132
319.73	2.9262
320.233	2.9009
320.754	2.87552
321.865	2.82234
322.239	2.79692
322.622	2.77149
323.023	2.74607
323.766	2.69641
324.051	2.67495
324.339	2.65345
324.636	2.63187
324.944	2.61018
