Uv/Vis Spectrum: Benzene, 1,2,4,5-tetrakis(1-methylethyl)-
Formula: C18H30
CAS: 635-11-0
Melting point: 118.4
Boiling point: 133/ 17 mm
Instrument: unknown
Origin: INSTITUTE OF ENERGY PROBLEMS OF CHEMICAL PHYSICS, RAS
Wavelength (nm)	Logarithm epsilon
234.58	2.367
234.86	2.32
235.03	2.282
235.2	2.242
235.37	2.197
235.54	2.146
235.71	2.106
235.88	2.079
236.05	2.042
236.23	2.004
236.4	1.968
236.57	1.941
236.74	1.915
236.91	1.884
237.08	1.86
237.25	1.833
237.42	1.808
237.59	1.791
237.76	1.772
237.93	1.753
238.1	1.737
238.21	1.726
238.41	1.711
238.61	1.698
238.75	1.689
238.9	1.683
239.04	1.678
239.21	1.671
239.41	1.665
239.64	1.663
239.8	1.663
239.99	1.663
240.16	1.664
240.32	1.667
240.49	1.671
240.65	1.675
240.82	1.68
240.96	1.685
241.19	1.692
241.34	1.698
241.51	1.705
241.75	1.715
241.85	1.719
242.06	1.728
242.24	1.736
242.4	1.742
242.55	1.749
242.74	1.757
242.88	1.763
243.05	1.769
243.18	1.774
243.39	1.782
243.53	1.787
243.73	1.794
243.91	1.798
244.07	1.803
244.24	1.808
244.41	1.813
244.57	1.818
244.75	1.825
244.93	1.831
245.09	1.836
245.28	1.842
245.46	1.847
245.61	1.852
245.82	1.859
245.95	1.865
246.12	1.875
246.29	1.887
246.46	1.896
246.63	1.908
246.8	1.919
246.97	1.93
247.14	1.943
247.31	1.949
247.48	1.955
247.65	1.966
247.82	1.974
247.99	1.983
248.16	1.991
248.34	1.996
248.51	2.008
248.68	2.013
248.85	2.018
249.02	2.027
249.19	2.034
249.36	2.042
249.53	2.049
249.7	2.057
249.87	2.064
250.06	2.072
250.21	2.079
250.38	2.085
250.55	2.091
250.72	2.1
250.89	2.111
251.06	2.118
251.23	2.123
251.41	2.13
251.58	2.137
251.75	2.144
251.92	2.15
252.09	2.158
252.26	2.164
252.43	2.173
252.6	2.181
252.77	2.187
252.94	2.195
253.11	2.203
253.28	2.21
253.45	2.216
253.62	2.226
253.79	2.234
253.96	2.242
254.13	2.249
254.3	2.256
254.48	2.266
254.65	2.272
254.82	2.28
254.99	2.286
255.16	2.295
255.33	2.3
255.5	2.312
255.67	2.317
255.84	2.325
256.01	2.331
256.18	2.338
256.35	2.346
256.52	2.353
256.69	2.359
256.86	2.366
257.03	2.373
257.2	2.382
257.37	2.389
257.55	2.396
257.72	2.403
257.89	2.41
258.06	2.417
258.23	2.426
258.4	2.432
258.57	2.441
258.74	2.45
258.91	2.458
259.08	2.465
259.25	2.472
259.42	2.48
259.59	2.487
259.76	2.493
259.93	2.502
260.1	2.507
260.27	2.511
260.44	2.515
260.62	2.519
260.79	2.522
260.96	2.526
261.13	2.529
261.3	2.532
261.47	2.535
261.64	2.538
261.81	2.542
261.98	2.546
262.15	2.549
262.32	2.552
262.49	2.554
262.66	2.557
262.83	2.56
263	2.562
263.17	2.566
263.34	2.568
263.51	2.571
263.69	2.573
263.86	2.576
264.03	2.579
264.2	2.581
264.37	2.584
264.54	2.586
264.71	2.589
264.88	2.592
265.05	2.596
265.22	2.598
265.39	2.603
265.51	2.607
265.59	2.613
265.67	2.62
265.73	2.626
265.86	2.638
265.99	2.647
266.12	2.653
266.24	2.658
266.37	2.664
266.5	2.67
266.63	2.674
266.76	2.677
266.88	2.682
267.01	2.688
267.14	2.695
267.27	2.703
267.4	2.713
267.52	2.727
267.65	2.741
267.78	2.75
267.91	2.756
268.03	2.762
268.16	2.765
268.29	2.768
268.42	2.769
268.55	2.769
268.67	2.769
268.8	2.767
268.93	2.763
269.06	2.759
269.19	2.755
269.31	2.746
269.44	2.734
269.57	2.727
269.7	2.714
269.83	2.701
269.95	2.694
270.08	2.687
270.21	2.677
270.34	2.668
270.47	2.663
270.59	2.658
270.72	2.653
270.85	2.649
270.98	2.647
271.1	2.645
271.23	2.643
271.36	2.643
271.53	2.641
271.7	2.639
271.87	2.638
272.04	2.636
272.21	2.635
272.38	2.632
272.55	2.63
272.73	2.627
272.9	2.625
273.07	2.621
273.24	2.619
273.41	2.619
273.58	2.619
273.75	2.622
273.92	2.624
274.09	2.628
274.26	2.632
274.43	2.636
274.6	2.641
274.77	2.646
274.94	2.654
275.11	2.664
275.28	2.678
275.45	2.69
275.62	2.708
275.8	2.72
275.97	2.735
276.14	2.745
276.31	2.755
276.48	2.768
276.54	2.774
276.6	2.778
276.65	2.781
276.72	2.785
276.82	2.79
276.9	2.795
276.99	2.801
277.07	2.806
277.16	2.809
277.24	2.812
277.33	2.813
277.42	2.814
277.5	2.814
277.59	2.814
277.67	2.814
277.76	2.812
277.84	2.812
277.93	2.811
278.01	2.808
278.1	2.804
278.18	2.796
278.27	2.791
278.32	2.787
278.38	2.779
278.52	2.762
278.67	2.737
278.8	2.712
278.94	2.68
279.03	2.659
279.12	2.635
279.21	2.611
279.3	2.584
279.42	2.554
279.53	2.524
279.64	2.496
279.72	2.469
279.79	2.449
279.86	2.429
279.98	2.392
280.02	2.381
280.06	2.368
280.1	2.352
280.19	2.331
280.27	2.308
280.36	2.295
280.44	2.273
280.53	2.252
280.61	2.228
280.7	2.211
280.78	2.19
280.87	2.172
280.95	2.153
281.04	2.134
281.13	2.112
281.21	2.1
281.3	2.079
281.38	2.057
281.47	2.034
281.55	2.015
281.64	1.991
281.72	1.97
281.81	1.96
281.89	1.939
281.98	1.917
282.06	1.899
282.15	1.882
282.23	1.862
282.32	1.847
282.4	1.822
282.49	1.805
282.57	1.782
282.66	1.763
282.75	1.747
282.83	1.737
282.92	1.719
283	1.701
283.09	1.671
283.17	1.663
283.26	1.642
283.34	1.621
283.43	1.598
283.51	1.579
283.6	1.559
283.68	1.538
283.77	1.516
283.85	1.499
283.94	1.481
284.02	1.456
284.11	1.443
284.2	1.422
284.28	1.408
284.37	1.378
284.45	1.354
284.54	1.338
284.62	1.311
284.71	1.293
284.79	1.264
284.88	1.264
