Uv/Vis Spectrum: N-acetyl-N-(1H-indol-3-yl)acetamide
Formula: C12H12N2O2
CAS: 63607-38-5
Melting point: 156-157
Instrument: Specord UV-Vis
Origin: INSTITUTE OF ENERGY PROBLEMS OF CHEMICAL PHYSICS, RAS
Wavelength (nm)	Logarithm epsilon
213.241	4.466
214.241	4.481
215.241	4.498
216.241	4.516
217.241	4.532
218.241	4.544
219.241	4.548
220.241	4.54
221.241	4.515
222.241	4.466
223.241	4.385
224.241	4.262
225.241	4.084
225.322	4.07
226.322	3.979
227.322	3.914
228.322	3.868
229.322	3.836
230.322	3.813
231.322	3.796
232.322	3.782
233.322	3.771
234.322	3.76
235.322	3.749
236.322	3.739
237.322	3.728
238.322	3.718
239.322	3.708
240.322	3.698
241.322	3.69
242.322	3.684
243.322	3.678
244.322	3.675
245.322	3.673
246.139	3.67
247.139	3.674
248.139	3.674
249.139	3.675
250.139	3.678
251.139	3.683
252.139	3.692
253.139	3.703
254.139	3.717
255.139	3.732
256.139	3.748
257.139	3.763
258.139	3.777
259.139	3.788
260.139	3.796
261.131	3.801
262.131	3.806
263.131	3.811
264.131	3.815
265.131	3.819
266.131	3.823
267.131	3.826
267.7	3.829
268.7	3.833
269.7	3.834
270.7	3.833
271.7	3.832
272.7	3.832
273.7	3.832
274.7	3.83
275.7	3.827
276.7	3.819
277.7	3.807
278.7	3.79
279.7	3.769
280.7	3.744
281.7	3.721
282.7	3.703
282.755	3.704
283.755	3.692
284.755	3.694
285.755	3.708
286.755	3.727
287.755	3.746
288.755	3.757
289.755	3.755
290.755	3.734
291.755	3.694
292.755	3.64
292.792	3.644
293.792	3.567
294.792	3.499
295.792	3.436
296.792	3.374
297.792	3.311
298.792	3.246
299.792	3.18
300.792	3.114
301.792	3.049
302.792	2.987
303.792	2.929
304.792	2.878
305.792	2.835
306.792	2.802
307.792	2.779
308.792	2.764
309.52	2.759
310.52	2.755
311.52	2.75
312.52	2.745
313.52	2.741
314.52	2.737
315.52	2.734
316.52	2.733
317.52	2.732
318.52	2.732
319.52	2.733
320.52	2.735
321.52	2.736
322.52	2.737
323.52	2.737
324.52	2.736
325.52	2.734
326.52	2.731
327.52	2.728
328.52	2.725
329.52	2.723
330.52	2.722
331.52	2.725
