Uv/Vis Spectrum: L-Methionine
Formula: C5H11NO2S
CAS: 63-68-3
Boiling point: 283 dec.
Instrument: Unicam SP 500
Origin: INSTITUTE OF ENERGY PROBLEMS OF CHEMICAL PHYSICS, RAS
Wavelength (nm)	Logarithm epsilon
185.99	3.563
186.06	3.561
186.14	3.559
186.21	3.557
186.29	3.555
186.36	3.553
186.44	3.551
186.52	3.548
186.59	3.546
186.67	3.544
186.74	3.542
186.82	3.54
186.89	3.54
186.97	3.538
187.2	3.508
187.65	3.493
188.11	3.476
188.57	3.457
189.03	3.442
189.5	3.427
189.97	3.412
190.44	3.397
190.91	3.384
191.38	3.372
191.86	3.359
192.34	3.348
192.82	3.34
193.3	3.331
193.79	3.325
194.28	3.316
194.77	3.312
195.26	3.303
195.76	3.301
196.26	3.297
196.76	3.293
197.26	3.291
197.77	3.288
198.28	3.286
198.79	3.282
199.31	3.282
199.82	3.282
200.34	3.282
200.87	3.28
201.39	3.278
201.92	3.276
202.45	3.274
202.98	3.271
203.52	3.267
204.06	3.263
204.6	3.261
205.15	3.259
205.69	3.25
206.25	3.248
206.8	3.239
207.36	3.233
207.92	3.227
208.48	3.218
209.04	3.208
209.61	3.197
210.19	3.184
210.76	3.169
211.34	3.154
211.92	3.137
212.51	3.116
213.09	3.093
213.69	3.069
214.28	3.046
214.88	3.02
215.48	2.992
216.08	2.963
216.69	2.931
217.3	2.894
217.92	2.852
218.54	2.822
219.16	2.788
219.78	2.754
220.41	2.72
221.05	2.686
221.68	2.652
222.32	2.605
222.97	2.573
223.61	2.537
224.26	2.498
224.92	2.462
225.58	2.417
226.24	2.377
226.89	2.336
227.55	2.305
228.25	2.272
228.9	2.237
229.61	2.191
230.3	2.147
230.99	2.098
231.69	2.049
232.38	2
233.09	1.946
233.8	1.897
234.49	1.848
235.22	1.789
235.94	1.731
236.67	1.68
237.4	1.625
238.13	1.561
238.83	1.505
239.61	1.448
240.36	1.393
241.14	1.327
241.87	1.265
242.63	1.203
243.4	1.139
244.17	1.06
244.95	0.992
245.73	0.917
246.52	0.837
247.31	0.773
248.11	0.7
248.91	0.626
249.72	0.536
250.53	0.464
251.35	0.396
252.17	0.315
253	0.242
253.83	0.172
254.67	0.091
