Uv/Vis Spectrum: 1,3-dihydro-8-nitro-4-phenyl-2H-1,5-benzodiazepin-2-one
Formula: C15H11N3O3
CAS: 63614-65-3
Melting point: 22-228
Instrument: SF-16
Origin: INSTITUTE OF ENERGY PROBLEMS OF CHEMICAL PHYSICS, RAS
Wavelength (nm)	Logarithm epsilon
203.467	4.483
204.045	4.494
204.917	4.505
205.498	4.512
206.369	4.519
207.822	4.522
209.275	4.515
210.437	4.504
211.309	4.493
211.959	4.482
212.762	4.47
213.633	4.457
214.795	4.442
215.598	4.431
216.811	4.42
217.993	4.409
218.863	4.402
220.365	4.401
221.664	4.406
222.877	4.412
224.674	4.417
226.516	4.412
227.73	4.402
228.943	4.393
230.485	4.384
232.519	4.372
234.262	4.362
235.715	4.353
237.435	4.344
238.648	4.337
239.861	4.327
242.287	4.309
244.714	4.287
247.14	4.264
249.273	4.249
252.502	4.24
254.601	4.236
257.788	4.232
259.843	4.217
261.698	4.214
264.124	4.218
266.55	4.221
271.403	4.227
273.829	4.231
276.255	4.231
278.682	4.227
281.108	4.221
283.534	4.214
285.961	4.208
288.387	4.201
290.813	4.187
292.954	4.178
295.959	4.171
298.092	4.158
300.518	4.151
302.945	4.139
305.371	4.131
307.797	4.127
310.223	4.123
312.403	4.126
315.076	4.123
317.394	4.121
319.929	4.115
322.355	4.111
324.735	4.113
327.208	4.111
329.634	4.107
332.06	4.102
334.486	4.102
336.913	4.107
339.416	4.108
341.765	4.107
344.192	4.102
346.618	4.098
349.044	4.094
351.455	4.089
353.897	4.08
356.144	4.069
358.144	4.054
360.144	4.041
362.144	4.028
364.144	4.014
366.144	3.997
368.144	3.979
370.144	3.957
372.144	3.934
374.144	3.908
376.144	3.881
378.144	3.853
380.144	3.826
382.144	3.801
384.144	3.78
386.144	3.765
387.865	3.756
