Uv/Vis Spectrum: Benzenesulfonamide, 4-amino-
Formula: C6H8N2O2S
CAS: 63-74-1
Melting point: 166-167 C
Instrument: Beckman DU
Origin: INSTITUTE OF ENERGY PROBLEMS OF CHEMICAL PHYSICS, RAS
Wavelength (nm)	Logarithm epsilon
207.29	4.265
208.31	4.201
209.33	4.157
210.34	4.112
211.36	4.058
212.38	4.01
213.39	3.953
214.41	3.895
215.43	3.823
216.45	3.725
217.46	3.626
218.48	3.5
219.5	3.419
220.52	3.347
221.53	3.259
222.55	3.129
223.57	3.014
224.58	2.956
225.6	2.953
226.62	2.959
227.64	2.993
228.65	3.031
229.67	3.075
230.69	3.106
231.71	3.146
232.72	3.194
233.74	3.238
234.76	3.289
235.77	3.334
236.79	3.385
237.81	3.432
238.83	3.483
239.84	3.544
240.86	3.595
241.88	3.646
242.9	3.694
243.91	3.755
244.93	3.793
245.95	3.837
246.96	3.874
247.98	3.918
249	3.966
250.02	3.997
251.03	4.031
252.05	4.061
253.07	4.092
254.09	4.119
255.1	4.14
256.12	4.167
257.14	4.187
258.15	4.211
259.17	4.221
260.19	4.231
261.21	4.235
262.22	4.235
263.24	4.231
264.26	4.225
265.28	4.211
266.29	4.197
267.31	4.184
268.33	4.167
269.34	4.146
270.36	4.116
271.38	4.089
272.4	4.044
273.41	4.014
274.43	3.97
275.45	3.929
276.47	3.895
277.48	3.854
278.5	3.827
279.52	3.786
280.53	3.752
281.55	3.721
282.57	3.697
283.59	3.667
284.6	3.633
285.62	3.609
286.64	3.582
287.66	3.555
288.67	3.527
289.69	3.507
290.71	3.483
291.72	3.456
292.74	3.432
293.76	3.408
294.78	3.385
295.79	3.361
296.81	3.334
297.83	3.313
298.85	3.283
299.86	3.255
300.88	3.221
301.9	3.191
302.91	3.143
303.93	3.106
304.95	3.058
305.97	3.014
306.98	2.956
308	2.905
309.02	2.844
310.04	2.769
311.05	2.711
312.07	2.63
313.09	2.541
315.12	2.408
316.14	2.34
317.16	2.232
318.17	2.099
319.36	1.929
319.7	1.854
320.38	1.735
321.06	1.616
321.73	1.456
322.41	1.327
323.09	1.171
323.77	1.038
324.45	0.926
325.13	0.834
325.8	0.749
326.48	0.674
327.16	0.606
