Uv/Vis Spectrum: 4-Vinylanisole
Formula: C9H10O
CAS: 637-69-4
Boiling point: 70/ 3.5 mm
Instrument: Unicam SP 700
Origin: INSTITUTE OF ENERGY PROBLEMS OF CHEMICAL PHYSICS, RAS
Wavelength (nm)	Logarithm epsilon
200.4	4.279
200.48	4.279
200.57	4.279
200.66	4.281
200.74	4.281
200.83	4.283
200.92	4.283
201.01	4.283
201.09	4.285
201.18	4.285
201.27	4.285
201.36	4.287
201.45	4.287
201.53	4.29
201.62	4.285
201.98	4.287
202.33	4.294
202.69	4.296
203.04	4.296
203.4	4.298
203.76	4.3
204.12	4.305
204.49	4.305
204.85	4.307
205.21	4.307
205.58	4.307
205.95	4.307
206.32	4.307
206.69	4.307
207.06	4.305
207.43	4.298
207.8	4.296
208.18	4.294
208.56	4.285
208.93	4.281
209.31	4.275
209.7	4.273
210.08	4.268
210.46	4.262
210.85	4.258
211.23	4.251
211.62	4.243
212.01	4.232
212.4	4.221
212.79	4.209
213.19	4.191
213.58	4.172
213.98	4.153
214.38	4.134
214.78	4.115
215.18	4.095
215.58	4.081
215.98	4.07
216.39	4.059
216.8	4.051
217.21	4.042
217.62	4.031
218.03	4.008
218.44	3.976
218.86	3.95
219.27	3.942
219.69	3.925
220.11	3.882
220.53	3.837
220.95	3.782
221.38	3.729
221.8	3.679
222.23	3.628
222.66	3.579
223.09	3.534
223.53	3.5
223.96	3.46
224.4	3.428
224.83	3.396
225.27	3.366
225.72	3.347
226.16	3.334
226.6	3.33
227.05	3.33
227.5	3.336
227.95	3.345
228.4	3.353
228.85	3.368
229.31	3.383
229.77	3.396
230.23	3.413
230.69	3.423
231.19	3.439
231.65	3.455
232.14	3.473
232.67	3.49
233.09	3.504
233.55	3.52
233.96	3.534
234.44	3.554
234.92	3.573
235.4	3.594
235.88	3.615
236.36	3.635
236.85	3.658
237.34	3.679
237.83	3.701
238.32	3.722
238.81	3.746
239.31	3.767
239.81	3.786
240.31	3.81
240.81	3.831
241.31	3.85
241.82	3.869
242.33	3.889
242.84	3.91
243.35	3.929
243.87	3.948
244.39	3.965
244.9	3.985
245.43	4.002
245.95	4.019
246.48	4.031
247	4.049
247.54	4.061
248.07	4.078
248.6	4.091
249.14	4.104
249.68	4.117
250.22	4.132
250.77	4.145
251.31	4.159
251.86	4.168
252.42	4.179
252.97	4.189
253.53	4.2
254.09	4.209
254.65	4.219
255.21	4.228
255.78	4.238
256.35	4.243
256.92	4.251
257.49	4.26
258.07	4.264
258.65	4.27
259.23	4.277
259.81	4.281
260.4	4.283
260.99	4.281
261.58	4.281
262.18	4.277
262.78	4.27
263.38	4.266
263.98	4.26
264.59	4.251
265.2	4.243
265.81	4.236
266.42	4.23
267.04	4.219
267.66	4.213
268.28	4.209
268.91	4.211
269.54	4.202
270.17	4.187
270.81	4.164
271.44	4.14
272.08	4.117
272.73	4.081
273.38	4.042
274.03	3.999
274.68	3.929
275.34	3.867
276	3.814
276.66	3.761
277.32	3.714
277.99	3.673
278.67	3.624
279.34	3.581
280.02	3.543
280.7	3.522
281.39	3.498
282.08	3.475
282.77	3.455
283.46	3.441
284.16	3.43
284.87	3.421
285.57	3.421
286.28	3.417
286.99	3.415
287.71	3.406
288.43	3.396
289.15	3.385
289.88	3.377
290.61	3.368
291.35	3.368
292.09	3.366
292.83	3.37
293.57	3.379
294.32	3.383
295.08	3.377
295.84	3.37
296.6	3.349
297.36	3.323
298.13	3.298
298.91	3.276
299.68	3.244
300.46	3.219
301.25	3.191
302.04	3.185
302.83	3.167
303.63	3.146
304.43	3.144
305.24	3.148
306.05	3.148
306.87	3.135
307.69	3.086
308.44	3.015
309	2.94
309.43	2.854
309.74	2.785
310	2.717
310.4	2.613
310.8	2.502
311.2	2.391
311.46	2.316
311.71	2.241
312.08	2.136
312.48	2.02
