Uv/Vis Spectrum: 2,5-Dimethylthiophene
Formula: C6H8S
CAS: 638-02-8
Boiling point: 136.5
Instrument: unknown
Origin: INSTITUTE OF ENERGY PROBLEMS OF CHEMICAL PHYSICS, RAS
Wavelength (nm)	Logarithm epsilon
215.76	3.388
216.45	3.421
217.32	3.451
218.01	3.484
218.87	3.514
219.91	3.543
220.61	3.577
221.82	3.602
222.68	3.631
223.72	3.66
224.76	3.69
225.8	3.715
227.01	3.74
228.05	3.769
229.26	3.79
230.48	3.816
231.86	3.828
233.07	3.849
234.46	3.862
236.02	3.874
237.58	3.878
239.14	3.878
240.69	3.87
242.08	3.853
243.46	3.832
244.85	3.811
245.89	3.786
246.93	3.757
247.79	3.727
248.66	3.694
249.53	3.66
250.22	3.627
250.69	3.602
251.18	3.575
251.56	3.554
251.99	3.53
252.4	3.507
252.73	3.486
253.16	3.459
253.33	3.451
253.51	3.447
253.68	3.438
253.82	3.428
254.03	3.413
254.2	3.396
254.37	3.388
254.55	3.379
254.72	3.367
254.89	3.347
255.07	3.333
255.24	3.317
255.41	3.3
255.59	3.287
255.76	3.266
255.93	3.254
256.11	3.241
256.28	3.229
256.45	3.212
256.62	3.191
256.8	3.17
256.97	3.153
257.14	3.128
257.32	3.107
257.49	3.09
257.66	3.072
257.84	3.044
258.01	3.019
258.18	2.994
258.36	2.969
258.53	2.948
258.7	2.914
258.88	2.885
259.05	2.868
259.22	2.834
259.4	2.809
259.57	2.776
259.74	2.734
259.92	2.692
260.09	2.654
260.26	2.621
260.43	2.587
260.61	2.545
260.78	2.486
260.95	2.432
261.13	2.386
261.3	2.344
261.47	2.302
261.65	2.247
261.82	2.176
261.99	2.105
262.17	1.878
262.34	1.732
262.51	1.593
262.69	1.434
262.86	1.229
263.03	1.161
263.27	1.036
263.42	0.968
263.58	0.928
263.86	0.871
264.29	0.791
264.88	0.706
265.63	0.621
266.32	0.537
267.01	0.461
267.62	0.411
268.4	0.352
269.09	0.31
269.79	0.268
270.48	0.239
271.17	0.201
271.86	0.168
272.56	0.147
273.25	0.117
273.94	0.101
