Uv/Vis Spectrum: Acetic acid
Formula: C2H4O2
CAS: 64-19-7
Melting point: 16.6
Boiling point: 117.9
Instrument: n.i.g.
Temperature: 210
Pressure: 309 mm Hg
Origin: INSTITUTE OF ENERGY PROBLEMS OF CHEMICAL PHYSICS, RAS
Wavelength (nm)	Logarithm epsilon
205.257	1.87509
205.406	1.87819
205.484	1.88058
205.56	1.88433
205.56	1.88433
205.722	1.8853
205.889	1.88627
206.059	1.88724
208.343	1.89987
208.745	1.90255
208.745	1.90255
209.545	1.90212
210.344	1.90168
211.141	1.90124
211.516	1.89939
211.889	1.89939
211.936	1.9008
212.256	1.89939
212.622	1.89939
212.731	1.90037
212.731	1.90037
212.837	1.89888
213.123	1.89756
213.837	1.89137
213.837	1.89137
213.837	1.8926
213.837	1.89388
213.837	1.89526
213.837	1.89526
214.262	1.88895
214.684	1.88658
215.101	1.88433
215.101	1.88433
215.523	1.87918
216.088	1.87318
216.511	1.86804
216.511	1.86804
216.87	1.86387
217.208	1.859
217.471	1.85613
217.471	1.85613
217.879	1.84964
218.273	1.84252
219.95	1.80849
219.95	1.80849
220.408	1.79464
220.861	1.78085
221.311	1.76717
221.311	1.76717
221.647	1.75247
221.901	1.74073
222.2	1.72581
222.672	1.70154
222.672	1.70154
222.796	1.68477
222.919	1.66801
223.042	1.65128
223.122	1.633
223.122	1.63495
223.122	1.63696
223.122	1.63907
223.162	1.63458
223.28	1.61793
223.28	1.61793
223.462	1.60536
223.645	1.5929
223.827	1.58049
223.827	1.58049
224.007	1.5753
224.242	1.56632
224.69	1.55108
224.69	1.55108
224.905	1.54782
225.321	1.5396
226.209	1.52289
226.209	1.52289
226.343	1.52192
226.476	1.52094
226.61	1.51997
226.61	1.51997
227.208	1.51191
228.103	1.50227
228.676	1.49761
228.676	1.49761
228.721	1.49475
228.813	1.49293
229.029	1.49056
229.029	1.49056
229.841	1.48801
230.598	1.48476
231.508	1.48157
231.508	1.48157
231.714	1.47843
232.026	1.47579
232.711	1.47136
232.711	1.47136
232.817	1.46924
232.917	1.46723
233.015	1.46528
233.015	1.46528
233.221	1.46389
233.424	1.46261
233.622	1.46139
233.622	1.46139
233.658	1.45969
233.692	1.45799
233.72	1.45629
233.72	1.45629
233.999	1.45344
234.133	1.45216
234.133	1.45216
234.291	1.44805
234.542	1.44297
234.838	1.43611
234.838	1.43611
235.328	1.42478
236.029	1.40588
236.551	1.3926
236.551	1.3926
237.128	1.3672
237.506	1.3519
237.912	1.33524
237.912	1.33524
238.117	1.32196
238.372	1.30433
238.652	1.28446
238.932	1.26441
239.188	1.24629
239.395	1.23218
