Uv/Vis Spectrum: Urea, phenyl-
Formula: C7H8N2O
CAS: 64-10-8
Melting point: 147
Boiling point: 238
Instrument: n.i.g.
Origin: INSTITUTE OF ENERGY PROBLEMS OF CHEMICAL PHYSICS, RAS
Wavelength (nm)	Logarithm epsilon
222.73	3.553
223.57	3.613
224.46	3.673
225.4	3.744
226.3	3.813
227.21	3.877
228.13	3.92
229.05	3.978
229.98	4.016
230.92	4.058
231.87	4.085
232.83	4.101
233.79	4.127
234.76	4.143
235.74	4.154
236.73	4.154
237.72	4.149
238.73	4.133
239.74	4.101
240.76	4.08
241.79	4.042
242.83	4.005
243.88	3.952
244.94	3.893
246	3.808
247.08	3.718
247.96	3.618
249.26	3.452
249.9	3.32
250.5	3.188
251.48	3.079
252.6	3.015
253.73	2.978
254.88	2.946
256.03	2.914
257.2	2.887
258.34	2.864
259.55	2.847
260.76	2.84
261.97	2.84
263.19	2.84
264.42	2.85
265.66	2.882
265.91	2.887
266.16	2.887
266.42	2.893
266.67	2.898
266.92	2.898
267.17	2.903
267.42	2.909
267.68	2.909
267.93	2.914
268.19	2.919
268.44	2.919
268.7	2.925
268.95	2.93
269.21	2.935
269.46	2.935
270.24	2.941
270.5	2.941
270.76	2.946
271.01	2.951
271.28	2.957
271.54	2.957
271.8	2.962
272.06	2.962
272.32	2.962
272.58	2.962
272.85	2.962
273.11	2.962
273.37	2.962
273.64	2.962
273.9	2.962
274.17	2.957
274.44	2.957
274.7	2.951
274.96	2.944
275.24	2.93
275.48	2.903
275.58	2.869
275.65	2.843
275.74	2.804
275.86	2.753
276.05	2.712
276.27	2.686
276.51	2.668
276.79	2.652
277.13	2.643
277.39	2.64
277.67	2.637
277.95	2.637
278.22	2.637
278.49	2.643
278.78	2.648
279.06	2.654
279.32	2.662
279.6	2.669
279.87	2.68
280.15	2.691
280.43	2.706
280.74	2.731
280.99	2.754
281.22	2.776
281.49	2.788
281.85	2.782
282.11	2.765
282.39	2.722
282.65	2.672
282.96	2.611
283.36	2.542
283.82	2.471
284.28	2.402
284.95	2.291
286.4	2.047
287.86	1.818
289.33	1.584
290.82	1.349
292.33	1.11
293.85	0.876
295.38	0.636
296.63	0.47
