Uv/Vis Spectrum: Tetramethylammonium bromide
Formula: C4H12BrN
CAS: 64-20-0
Instrument: Cary 14
Origin: INSTITUTE OF ENERGY PROBLEMS OF CHEMICAL PHYSICS, RAS
Wavelength (nm)	Logarithm epsilon
190.763	3.935
191.763	3.921
192.763	3.916
193.763	3.919
194.763	3.928
195.763	3.942
196.763	3.959
197.763	3.977
198.763	3.995
199.763	4.01
200.763	4.022
201.763	4.03
202.763	4.032
203.763	4.028
204.763	4.019
205.763	4.007
206.745	3.993
207.745	3.982
208.745	3.974
209.745	3.97
210.745	3.972
211.745	3.979
212.745	3.99
213.745	4.003
214.654	4.01
215.736	4.028
216.736	4.038
217.736	4.038
218.736	4.03
219.736	4.013
220.736	3.989
221.736	3.957
222.736	3.917
223.736	3.868
224.736	3.81
225.736	3.744
226.736	3.669
227.736	3.586
228.736	3.497
229.736	3.402
230.736	3.3
231.736	3.192
232.736	3.075
233.736	2.945
234.736	2.795
235.736	2.614
236.736	2.388
