Uv/Vis Spectrum: 1-Benzoylnaphthalene
Formula: C17H12O
CAS: 642-29-5
Melting point: 75-76
Instrument: Unicam SP 700
Origin: INSTITUTE OF ENERGY PROBLEMS OF CHEMICAL PHYSICS, RAS
Wavelength (nm)	Logarithm epsilon
205.26	4.377
205.77	4.407
206.28	4.438
206.79	4.468
207.47	4.495
208.15	4.523
209	4.55
210.02	4.573
211.21	4.594
212.4	4.614
213.41	4.634
214.77	4.651
216.13	4.668
217.49	4.678
218.85	4.688
220.21	4.699
221.73	4.702
223.09	4.688
224.11	4.665
224.45	4.634
224.79	4.604
225.3	4.577
225.64	4.546
226.15	4.519
226.49	4.489
227	4.462
227.34	4.431
227.68	4.401
228.19	4.374
228.53	4.343
229.04	4.313
229.38	4.282
229.72	4.252
230.23	4.221
230.73	4.194
231.07	4.164
231.92	4.14
232.94	4.116
234.13	4.099
235.66	4.099
237.19	4.106
238.55	4.123
239.9	4.133
241.26	4.15
242.62	4.164
243.98	4.181
245.34	4.194
246.7	4.211
248.05	4.221
249.58	4.228
251.11	4.228
252.64	4.228
254.17	4.225
255.7	4.221
257.05	4.208
258.41	4.191
259.6	4.17
260.62	4.15
261.47	4.126
262.49	4.103
263.34	4.079
264.19	4.052
265.2	4.028
266.05	4.004
267.07	3.984
268.09	3.96
269.11	3.94
270.3	3.923
271.49	3.906
272.68	3.889
273.86	3.872
275.22	3.855
276.58	3.842
277.94	3.825
279.47	3.815
281	3.808
282.52	3.808
284.05	3.805
285.41	3.795
286.94	3.788
288.3	3.774
289.83	3.771
291.35	3.761
292.88	3.754
294.41	3.747
295.94	3.737
297.47	3.734
299	3.723
300.52	3.717
302.05	3.713
303.58	3.713
305.11	3.717
306.64	3.72
308.16	3.723
309.69	3.723
311.22	3.72
312.75	3.717
314.11	3.703
315.47	3.693
316.82	3.679
318.18	3.666
319.54	3.656
320.9	3.646
322.26	3.629
323.62	3.612
324.98	3.598
326.16	3.581
327.35	3.564
328.54	3.544
329.73	3.524
330.92	3.507
331.94	3.486
332.96	3.466
333.81	3.442
334.82	3.422
335.84	3.402
336.69	3.378
337.54	3.354
338.56	3.331
339.41	3.307
340.26	3.28
340.94	3.253
341.79	3.229
342.47	3.202
343.31	3.178
343.99	3.151
344.84	3.127
345.35	3.1
346.2	3.073
346.71	3.046
347.39	3.019
348.07	2.992
348.58	2.965
349.43	2.938
349.94	2.911
350.62	2.884
351.3	2.857
351.97	2.829
352.65	2.802
353.16	2.775
353.84	2.748
354.69	2.721
355.2	2.694
356.05	2.67
356.56	2.643
357.41	2.62
358.09	2.592
359.11	2.569
359.79	2.542
360.8	2.518
361.65	2.491
362.67	2.467
363.52	2.443
364.37	2.42
365.22	2.393
366.24	2.369
367.09	2.342
367.94	2.318
368.78	2.294
369.46	2.267
370.31	2.24
370.82	2.213
371.5	2.186
372.18	2.159
372.69	2.129
373.2	2.101
373.88	2.074
374.39	2.044
374.9	2.013
375.41	1.986
376.09	1.959
376.43	1.929
376.94	1.902
377.61	1.875
378.12	1.848
378.8	1.82
379.31	1.793
379.82	1.766
380.5	1.739
381.01	1.712
381.52	1.685
382.2	1.658
382.71	1.631
383.22	1.604
383.9	1.577
384.58	1.55
385.09	1.522
385.77	1.495
386.27	1.468
386.95	1.441
387.46	1.414
387.97	1.387
388.65	1.36
389.33	1.333
389.84	1.306
390.52	1.279
391.03	1.252
391.54	1.224
392.22	1.197
392.73	1.17
393.24	1.143
393.92	1.116
394.59	1.089
395.1	1.062
395.78	1.035
