Uv/Vis Spectrum: 9-Anthraldehyde
Formula: C15H10O
CAS: 642-31-9
Instrument: n.i.g.
Origin: INSTITUTE OF ENERGY PROBLEMS OF CHEMICAL PHYSICS, RAS
Wavelength (nm)	Logarithm epsilon
247.287	4.84802
247.518	4.85937
248.59	4.90028
249.059	4.90284
250.417	4.96751
251.033	5.00648
251.385	5.01657
252.125	5.03639
252.923	5.10423
253.618	5.0882
254.716	5.13401
254.726	5.13877
254.73	5.14092
255.185	5.14084
255.431	5.14079
255.459	5.1545
256.915	5.20116
257.121	5.30291
257.134	5.30942
257.173	5.22623
258.076	5.26526
258.984	5.26508
259.437	5.26499
259.51	5.33542
259.904	5.33249
259.99	5.32828
262.516	5.44028
262.786	5.45163
265.602	5.43641
266.274	5.43628
266.615	5.42726
266.633	5.43621
267.183	5.36159
267.536	5.37292
267.713	5.37859
271.896	4.81629
271.906	4.74015
272.132	4.42374
272.268	4.67411
272.524	4.29174
273.102	4.23096
273.185	4.22524
273.679	4.29151
274.424	4.02793
274.54	4.08532
274.616	4.02014
274.681	4.07348
275.404	3.94142
275.983	3.94251
277.744	3.81392
278.2	3.81383
278.423	3.80278
278.445	3.81378
279.986	3.73938
280.658	3.73924
284.902	3.61992
285.574	3.61979
285.933	3.61972
286.016	3.614
288.309	3.56256
288.622	3.56377
289.487	3.50593
289.695	3.50283
290.037	3.44627
290.462	3.44619
290.688	3.44195
290.697	3.44614
291.296	3.39554
291.497	3.39212
293.757	3.26639
294.465	3.2695
294.484	3.27885
294.755	3.26414
295.276	3.26283
295.383	3.25373
297.037	3.19489
297.442	3.21151
297.634	3.20372
297.748	3.19964
298.064	3.19306
298.151	3.18897
298.37	3.18079
298.999	3.20631
300.339	3.1348
300.467	3.13669
300.594	3.1384
300.783	3.12901
304.048	3.09172
305.161	3.08016
310.833	3.06025
310.851	3.0692
310.86	3.07368
311.621	3.06242
312.079	3.06447
312.809	3.07173
316.572	3.10309
317.394	3.1162
318.119	3.11296
318.574	3.11287
319.603	3.17334
319.95	3.17559
320.146	3.17649
320.456	3.16654
320.641	3.17639
321.022	3.18161
321.143	3.1596
321.211	3.17302
321.362	3.18643
321.47	3.16412
321.497	3.17134
322.514	3.24483
323.207	3.24184
323.322	3.25159
323.483	3.33706
323.928	3.3325
324.354	3.31898
324.372	3.32793
324.737	3.3246
325.273	3.32356
325.558	3.32281
326.096	3.3933
326.558	3.38857
326.898	3.38757
327.705	3.44576
328.193	3.46153
329.589	3.5199
330.036	3.53109
334.155	3.67616
334.292	3.68183
340.582	3.79338
342.087	3.80324
346.836	3.84629
346.968	3.84952
355.372	3.9508
355.588	3.94494
360.844	3.97871
361.857	3.98408
363.837	4.03023
364.292	4.03014
364.538	4.03009
364.557	4.03944
366.387	4.08755
367.249	4.09666
369.246	4.15457
369.574	4.15357
374.414	4.16006
374.564	4.16739
374.913	4.16076
375.324	4.17536
375.561	4.17531
375.841	4.17077
375.945	4.1618
380.904	4.14482
381.01	4.13678
381.571	4.14876
381.584	4.15539
387.693	4.13626
387.702	4.14075
398.787	4.19503
398.795	4.19922
414.444	4.06165
415.325	4.06933
415.476	4.06238
415.544	4.06998
415.664	4.0538
416.029	4.07082
418.56	4.03112
419.033	4.02626
423.027	3.9815
423.045	3.99045
423.483	3.9821
423.949	3.98252
424.433	3.98285
424.541	3.98973
429.014	3.88219
429.024	3.88695
430.064	3.80951
430.175	3.81751
432.728	3.69905
432.811	3.69333
433.959	3.61411
433.977	3.62307
434.853	3.54635
434.86	3.54989
434.873	3.55652
435.525	3.54622
435.87	3.53951
435.884	3.54615
436.407	3.47845
436.421	3.48536
437.321	3.42086
437.777	3.42077
438.014	3.41623
438.023	3.42073
438.545	3.35263
439	3.35254
439.237	3.3483
439.246	3.35249
439.845	3.30188
439.98	3.29306
440.904	3.15265
441.221	3.2279
441.434	3.08862
441.512	3.20872
441.582	3.16187
441.592	3.16636
441.889	3.08853
442.024	3.15487
442.135	3.08848
442.148	3.095
442.329	3.02045
442.464	3.14826
442.602	3.15598
442.67	3.02038
442.812	3.0297
442.916	3.0251
443.029	3.02031
443.372	3.02717
443.458	3.02265
443.593	2.97297
443.79	2.96275
444.232	2.94231
444.425	2.87468
444.439	2.88158
444.796	2.87461
445.13	2.87576
445.473	2.87692
445.835	2.87807
446.22	2.74269
446.234	2.74932
446.936	2.66816
447.644	2.59025
447.667	2.60153
447.726	2.67033
