Uv/Vis Spectrum: 7-methyl-5H-indeno[1,2-b]pyridin-5-one
Formula: C13H9NO
CAS: 64292-02-0
Melting point: 157-158
Instrument: Specord UV-Vis
Origin: INSTITUTE OF ENERGY PROBLEMS OF CHEMICAL PHYSICS, RAS
Wavelength (nm)	Logarithm epsilon
200.58	4.382
201.58	4.417
202.58	4.452
203.58	4.478
204.58	4.492
205.58	4.491
206.58	4.476
207.434	4.461
208.434	4.433
209.434	4.434
210.434	4.451
211.434	4.475
212.434	4.5
213.434	4.522
214.434	4.539
215.434	4.552
216.657	4.565
217.842	4.574
219.177	4.578
220.177	4.56
221.177	4.53
222.177	4.497
223.177	4.466
224.177	4.44
225.177	4.423
226.177	4.415
227.177	4.417
228.177	4.428
229.177	4.448
230.177	4.474
231.177	4.505
232.177	4.539
233.177	4.574
234.177	4.609
235.034	4.635
236.034	4.674
237.034	4.71
238.034	4.742
239.034	4.771
240.034	4.797
241.034	4.821
242.034	4.842
243.034	4.861
244.034	4.879
245.034	4.896
246.034	4.911
247.034	4.925
248.034	4.937
249.034	4.946
250.034	4.949
251.034	4.944
252.034	4.929
253.002	4.902
254.002	4.851
255.002	4.803
256.002	4.749
257.002	4.684
258.002	4.607
259.002	4.52
260.002	4.429
261.002	4.342
262.78	4.227
263.78	4.185
264.78	4.158
265.78	4.146
266.78	4.144
267.78	4.149
268.747	4.155
269.747	4.172
270.747	4.187
271.747	4.204
272.747	4.223
273.747	4.244
274.747	4.268
275.747	4.294
276.747	4.322
277.747	4.35
278.747	4.377
279.747	4.401
280.747	4.423
281.811	4.438
282.713	4.454
283.713	4.463
284.713	4.473
285.713	4.484
286.713	4.497
287.713	4.509
288.713	4.519
289.713	4.522
290.713	4.515
291.713	4.498
292.713	4.467
293.713	4.423
294.529	4.38
295.529	4.323
296.347	4.275
297.347	4.22
298.347	4.182
299.347	4.152
300.347	4.126
301.347	4.101
302.347	4.076
303.347	4.049
304.347	4.022
305.347	3.995
306.347	3.969
306.381	3.968
307.381	3.942
308.381	3.919
