Uv/Vis Spectrum: Methanone, (3-methylphenyl)phenyl-
Formula: C14H12O
CAS: 643-65-2
Boiling point: 155/16 mm.
Instrument: unknown
Origin: INSTITUTE OF ENERGY PROBLEMS OF CHEMICAL PHYSICS, RAS
Wavelength (nm)	Logarithm epsilon
275.44	3.975
276.08	3.984
276.73	3.994
277.51	4.001
278.29	4.009
279.07	4.017
279.85	4.026
280.63	4.036
281.53	4.042
282.44	4.049
283.35	4.057
284.26	4.063
285.17	4.07
286.21	4.075
287.24	4.08
288.28	4.085
289.32	4.089
290.49	4.091
291.66	4.092
292.82	4.091
293.86	4.085
294.9	4.079
295.68	4.071
296.46	4.063
297.11	4.054
297.76	4.043
298.4	4.034
298.79	4.024
299.31	4.013
299.57	4.001
299.96	3.991
300.22	3.979
300.48	3.967
300.87	3.957
301.26	3.946
301.65	3.936
301.78	3.924
302.17	3.914
302.43	3.902
302.82	3.891
303.21	3.881
303.85	3.872
304.37	3.861
305.15	3.853
306.32	3.852
307.23	3.86
307.88	3.87
308.4	3.881
308.92	3.891
309.31	3.902
309.69	3.912
310.21	3.923
310.6	3.933
311.38	3.942
311.9	3.953
312.42	3.963
312.81	3.974
313.46	3.984
313.85	3.996
314.37	4.007
314.76	4.017
315.27	4.028
315.79	4.038
316.18	4.049
316.83	4.059
317.48	4.07
317.87	4.08
318.52	4.091
319.04	4.101
319.69	4.112
320.21	4.122
320.85	4.133
321.5	4.143
322.28	4.152
322.8	4.163
323.45	4.173
323.97	4.184
324.75	4.193
325.53	4.202
326.05	4.213
326.82	4.222
327.34	4.232
327.99	4.241
328.77	4.249
329.29	4.26
330.07	4.269
330.85	4.278
331.5	4.289
332.27	4.296
333.05	4.304
333.83	4.313
334.74	4.321
335.78	4.328
336.82	4.333
337.85	4.337
338.89	4.344
339.93	4.348
341.1	4.35
342.14	4.354
343.31	4.355
344.47	4.355
345.64	4.355
346.81	4.351
347.98	4.348
349.02	4.341
350.05	4.334
350.83	4.325
351.61	4.316
352.39	4.308
353.17	4.299
353.82	4.29
354.47	4.281
355.11	4.272
355.76	4.261
356.54	4.252
357.06	4.241
357.71	4.231
358.23	4.22
358.88	4.211
359.27	4.201
359.92	4.19
360.56	4.18
361.08	4.169
361.6	4.159
362.12	4.148
362.77	4.139
363.03	4.127
363.68	4.117
364.07	4.106
364.59	4.096
364.98	4.085
365.63	4.075
366.02	4.063
366.4	4.053
367.05	4.042
367.57	4.032
367.96	4.021
368.61	4.011
369	4
