Uv/Vis Spectrum: 2-Methylbiphenyl
Formula: C13H12
CAS: 643-58-3
Melting point: -0.2
Boiling point: 255.5
Instrument: Beckman spectrophotometer
Origin: INSTITUTE OF ENERGY PROBLEMS OF CHEMICAL PHYSICS, RAS
Wavelength (nm)	Logarithm epsilon
207.9	4.46685
208.284	4.4625
208.289	4.46665
209.621	4.45009
210.01	4.44989
210.95	4.44563
211.338	4.44543
211.537	4.44155
211.717	4.43729
211.722	4.44145
212.856	4.42915
213.24	4.42479
213.245	4.42895
213.439	4.42091
213.443	4.42469
214.572	4.40861
214.951	4.40047
216.07	4.37645
216.075	4.38023
216.251	4.37258
216.256	4.37636
216.45	4.36832
216.455	4.37247
216.63	4.36444
217.564	4.34052
217.569	4.3443
217.744	4.33626
217.749	4.34042
217.939	4.3286
217.943	4.33238
218.668	4.3044
218.867	4.30052
218.872	4.3043
219.242	4.2886
219.246	4.29238
220.148	4.25675
220.157	4.26469
220.342	4.24871
220.351	4.25664
221.266	4.21684
221.276	4.22478
221.442	4.20919
221.451	4.21675
222.186	4.1812
222.195	4.18914
222.361	4.17355
222.366	4.17733
222.56	4.16929
222.897	4.14188
223.091	4.13384
223.095	4.13762
223.617	4.09424
223.631	4.10596
224.342	4.06664
224.347	4.07042
224.541	4.06238
225.082	4.03487
225.086	4.03865
225.257	4.02684
225.267	4.03478
226.001	3.99923
226.177	3.9912
226.181	3.99498
226.371	3.98316
226.38	3.99109
226.551	3.97928
227.106	3.96311
227.111	3.96727
227.3	3.95545
227.305	3.95923
228.035	3.93541
228.04	3.93919
228.234	3.93153
228.414	3.92727
228.419	3.93143
228.788	3.91536
228.803	3.92707
228.969	3.91148
229.533	3.90325
229.737	3.90315
229.917	3.89927
231.449	3.89433
231.454	3.89849
231.843	3.89829
232.815	3.90536
233.005	3.90942
233.01	3.9132
234.2	3.93226
234.385	3.93217
234.575	3.93585
235.367	3.94717
235.766	3.95491
235.951	3.95482
236.743	3.96614
236.932	3.96982
236.938	3.97398
237.123	3.97389
239.295	4.00795
239.48	4.00786
239.485	4.01163
239.67	4.01154
240.656	4.0307
240.86	4.0306
240.865	4.03476
241.05	4.03466
242.217	4.04957
242.222	4.05335
242.425	4.05325
242.431	4.05741
243.593	4.06854
243.982	4.06834
244.171	4.07202
245.713	4.0754
246.102	4.0752
249.161	4.06153
249.359	4.05765
249.545	4.05756
249.744	4.05367
250.692	4.04146
250.877	4.04137
251.256	4.03323
253.878	3.98084
254.077	3.97695
254.082	3.98073
254.253	3.96892
254.258	3.97308
255.372	3.9449
255.376	3.94868
255.742	3.92921
255.751	3.93677
257.989	3.87322
257.989	3.87322
257.993	3.877
258.913	3.84136
259.084	3.82955
259.093	3.83711
259.823	3.79778
259.832	3.80534
259.998	3.78975
260.008	3.79768
260.923	3.75788
260.933	3.76582
261.644	3.72612
261.833	3.7143
261.842	3.72224
262.008	3.70627
262.013	3.71043
262.549	3.67876
262.553	3.68255
262.748	3.67488
262.752	3.67866
262.928	3.67063
263.473	3.6469
263.667	3.63886
263.672	3.64302
264.397	3.61504
264.591	3.607
264.596	3.61116
264.776	3.6069
264.957	3.60303
265.711	3.58298
265.896	3.58288
266.095	3.579
266.28	3.5789
266.46	3.57503
268.006	3.5663
268.006	3.5663
268.01	3.57008
268.191	3.56621
268.195	3.56998
268.584	3.56979
269.927	3.57704
270.135	3.58072
270.524	3.58052
271.872	3.59156
271.881	3.59949
276.587	3.65987
276.587	3.65987
276.591	3.66365
277.944	3.67885
278.152	3.68252
278.337	3.68243
278.342	3.68621
279.708	3.69724
279.898	3.7013
280.101	3.70119
281.449	3.71223
281.657	3.71591
282.046	3.71571
283.384	3.71919
283.958	3.71889
285.119	3.71414
285.508	3.71394
286.831	3.70532
287.035	3.70522
287.216	3.70135
287.401	3.70125
287.6	3.69737
288.738	3.68884
289.117	3.68071
290.62	3.65271
290.625	3.65649
290.8	3.64846
290.805	3.65262
290.999	3.64458
293.028	3.57698
293.038	3.58491
294.123	3.5333
294.133	3.54124
294.322	3.52942
294.327	3.5332
294.503	3.52516
295.048	3.50144
295.247	3.49755
295.252	3.50133
295.427	3.4933
296.166	3.46153
296.176	3.46947
296.527	3.45378
297.091	3.43005
297.266	3.42202
297.271	3.4258
297.447	3.41814
297.982	3.38648
297.987	3.39026
298.181	3.38222
299.636	3.31491
299.641	3.31907
299.817	3.31104
300.551	3.27549
300.556	3.27927
300.721	3.2633
300.731	3.27124
301.456	3.22775
301.466	3.23569
301.636	3.22388
302.158	3.1805
302.167	3.18843
302.707	3.14504
302.878	3.13323
302.887	3.14079
303.404	3.09363
303.413	3.10157
303.603	3.08975
303.934	3.05818
304.128	3.05014
304.133	3.05392
304.446	3.00687
304.46	3.01858
304.796	2.9753
304.981	2.95969
304.995	2.97141
305.521	2.93181
305.531	2.93975
305.697	2.92378
305.706	2.93172
305.871	2.90024
305.877	2.9044
306.042	2.88843
306.052	2.89637
306.218	2.8804
306.227	2.88834
306.568	2.8492
306.578	2.85677
306.744	2.84117
306.754	2.84911
307.288	2.80156
307.298	2.8095
307.469	2.79769
308.33	2.7148
308.336	2.71896
308.506	2.70715
308.511	2.71093
308.847	2.66764
308.857	2.67558
309.046	2.66376
309.562	2.61622
309.572	2.62415
309.738	2.60856
309.743	2.61234
