Uv/Vis Spectrum: 1,1'-Biphenyl, 3-methyl-
Formula: C13H12
CAS: 643-93-6
Melting point: 4.5
Boiling point: 272.7
Instrument: unknown
Origin: INSTITUTE OF ENERGY PROBLEMS OF CHEMICAL PHYSICS, RAS
Wavelength (nm)	Logarithm epsilon
220.34	3.969
220.46	3.96
220.63	3.952
220.76	3.944
220.89	3.935
221.05	3.927
221.18	3.918
221.31	3.91
221.43	3.901
221.6	3.893
221.73	3.885
221.9	3.876
222.02	3.868
222.19	3.859
222.32	3.851
222.49	3.842
222.61	3.834
222.78	3.826
222.91	3.817
223.08	3.809
223.2	3.8
223.37	3.792
223.54	3.783
223.71	3.775
223.88	3.767
224.09	3.758
224.3	3.751
224.55	3.743
224.89	3.739
225.27	3.737
225.61	3.742
225.94	3.748
226.24	3.753
226.53	3.759
226.79	3.765
227.08	3.772
227.34	3.778
227.59	3.784
227.84	3.791
228.14	3.797
228.35	3.804
228.6	3.812
228.85	3.818
229.11	3.826
229.36	3.833
229.61	3.84
229.87	3.847
230.15	3.854
230.37	3.861
230.62	3.869
230.88	3.876
231.13	3.884
231.38	3.891
231.64	3.898
231.89	3.906
232.14	3.913
232.35	3.92
232.61	3.928
232.82	3.935
233.07	3.943
233.32	3.95
233.58	3.957
233.79	3.965
234.04	3.972
234.29	3.979
234.54	3.987
234.8	3.993
235.01	4.001
235.22	4.008
235.47	4.015
235.73	4.023
235.98	4.03
236.19	4.037
236.44	4.044
236.69	4.051
236.95	4.058
237.2	4.065
237.45	4.072
237.71	4.079
237.96	4.085
238.25	4.091
238.51	4.097
238.76	4.104
239.06	4.109
239.35	4.115
239.65	4.122
239.9	4.128
240.19	4.133
240.49	4.139
240.78	4.144
241.08	4.149
241.42	4.154
241.75	4.16
242.09	4.165
242.43	4.169
242.77	4.173
243.1	4.178
243.44	4.182
243.78	4.185
244.11	4.189
244.49	4.192
244.87	4.196
245.25	4.198
245.63	4.201
245.97	4.204
246.35	4.206
246.69	4.209
247.07	4.21
247.45	4.212
247.82	4.214
248.2	4.214
248.58	4.216
248.96	4.216
249.34	4.214
249.72	4.214
250.1	4.213
250.48	4.211
250.86	4.21
251.24	4.208
251.62	4.206
252	4.204
252.38	4.201
252.76	4.2
253.14	4.197
253.47	4.193
253.85	4.19
254.19	4.186
254.57	4.183
254.91	4.179
255.24	4.174
255.58	4.169
255.92	4.165
256.26	4.16
256.59	4.154
256.93	4.15
257.27	4.145
257.56	4.139
257.86	4.133
258.15	4.128
258.45	4.123
258.74	4.116
259.04	4.111
259.33	4.105
259.59	4.099
259.88	4.092
260.18	4.086
260.47	4.08
260.73	4.073
260.98	4.067
261.27	4.061
261.53	4.054
261.78	4.047
262.03	4.041
262.24	4.033
262.54	4.027
262.79	4.019
263.04	4.013
263.3	4.006
263.51	3.998
263.76	3.992
264.01	3.985
264.22	3.977
264.48	3.97
264.69	3.963
264.94	3.955
265.15	3.948
265.4	3.94
265.62	3.933
265.83	3.926
266.04	3.918
266.25	3.911
266.46	3.904
266.67	3.896
266.88	3.889
267.09	3.881
267.3	3.874
267.51	3.867
267.72	3.859
267.93	3.852
268.15	3.843
268.36	3.836
268.57	3.828
268.74	3.819
268.95	3.812
269.11	3.803
269.33	3.795
