Uv/Vis Spectrum: 1,1'-Biphenyl, 4-methyl-
Formula: C13H12
CAS: 644-08-6
Melting point: 49.5
Boiling point: 276.5
Instrument: unknown
Origin: INSTITUTE OF ENERGY PROBLEMS OF CHEMICAL PHYSICS, RAS
Wavelength (nm)	Logarithm epsilon
232.57	3.913
232.78	3.921
232.95	3.93
233.16	3.938
233.37	3.946
233.58	3.953
233.8	3.961
234.04	3.969
234.25	3.976
234.5	3.983
234.7	3.99
234.97	3.999
235.18	4.006
235.42	4.015
235.64	4.021
235.89	4.029
236.1	4.037
236.31	4.044
236.52	4.05
236.78	4.058
237.03	4.065
237.28	4.072
237.53	4.08
237.79	4.086
238.04	4.093
238.29	4.099
238.54	4.106
238.8	4.113
239.05	4.119
239.34	4.126
239.6	4.133
239.85	4.139
240.1	4.146
240.35	4.152
240.61	4.158
240.86	4.164
241.15	4.171
241.45	4.177
241.74	4.183
242.04	4.19
242.33	4.196
242.63	4.202
242.92	4.208
243.22	4.214
243.51	4.22
243.8	4.226
244.1	4.231
244.39	4.237
244.73	4.242
245.03	4.247
245.36	4.252
245.7	4.255
246.04	4.26
246.37	4.264
246.71	4.267
247.05	4.271
247.42	4.274
247.76	4.277
248.14	4.28
248.52	4.283
248.9	4.285
249.28	4.288
249.65	4.289
250.03	4.29
250.41	4.29
250.79	4.291
251.17	4.291
251.55	4.29
251.93	4.289
252.31	4.288
252.69	4.287
253.06	4.285
253.44	4.284
253.82	4.282
254.2	4.28
254.58	4.277
254.96	4.274
255.34	4.271
255.72	4.268
256.09	4.265
256.43	4.261
256.77	4.257
257.15	4.253
257.48	4.249
257.82	4.246
258.16	4.241
258.49	4.236
258.83	4.23
259.17	4.225
259.46	4.22
259.76	4.215
260.05	4.209
260.34	4.204
260.64	4.198
260.93	4.193
261.23	4.187
261.52	4.181
261.86	4.176
262.15	4.17
262.45	4.164
262.7	4.158
262.95	4.152
263.25	4.146
263.52	4.139
263.8	4.133
264.09	4.127
264.34	4.12
264.6	4.114
264.85	4.108
265.1	4.102
265.35	4.095
265.61	4.089
265.9	4.083
266.15	4.076
266.41	4.069
266.66	4.063
266.91	4.055
267.16	4.048
267.42	4.041
267.67	4.035
267.92	4.027
268.17	4.02
268.38	4.013
268.64	4.005
268.85	3.998
269.1	3.991
269.35	3.984
269.56	3.977
269.81	3.971
270.07	3.964
270.32	3.957
270.57	3.95
270.82	3.942
271.08	3.936
271.33	3.929
271.62	3.923
271.84	3.915
272.09	3.909
272.34	3.903
272.59	3.895
272.89	3.889
273.14	3.883
273.39	3.875
273.69	3.869
273.94	3.863
274.19	3.857
