Uv/Vis Spectrum: Methanone, 2-naphthalenylphenyl-
Formula: C17H12O
CAS: 644-13-3
Melting point: 81-82
Instrument: Unicam SP 500
Origin: INSTITUTE OF ENERGY PROBLEMS OF CHEMICAL PHYSICS, RAS
Wavelength (nm)	Logarithm epsilon
204.56	4.259
204.73	4.262
204.9	4.265
205.07	4.272
205.41	4.28
205.55	4.287
205.82	4.3
206.08	4.313
206.58	4.343
207.09	4.367
207.6	4.394
208.1	4.418
208.61	4.431
209.12	4.455
209.62	4.468
210.13	4.482
210.64	4.496
211.14	4.509
211.65	4.523
212.1	4.534
212.66	4.546
213.17	4.556
213.68	4.563
214.18	4.573
214.69	4.58
215.19	4.586
215.7	4.589
216.21	4.594
216.72	4.597
217.22	4.6
217.73	4.604
218.23	4.607
218.74	4.607
219.25	4.604
219.71	4.603
220.26	4.597
220.77	4.59
221.27	4.577
221.78	4.479
222.29	4.411
222.79	4.37
223.3	4.343
223.81	4.319
224.31	4.292
224.82	4.275
225.33	4.255
225.83	4.242
226.31	4.231
226.85	4.221
227.37	4.209
227.86	4.201
228.34	4.192
228.87	4.187
229.38	4.187
230.37	4.191
232.26	4.2
234.11	4.221
235.46	4.238
236.81	4.255
237.97	4.275
239	4.296
240.18	4.316
241.2	4.336
242.36	4.359
243.39	4.38
244.57	4.401
245.76	4.418
246.94	4.435
248.12	4.455
249.47	4.472
250.82	4.485
252.17	4.502
253.69	4.506
255.21	4.506
256.73	4.502
258.25	4.499
259.43	4.482
260.61	4.465
261.63	4.445
262.47	4.421
263.48	4.397
264.33	4.374
265	4.347
265.68	4.319
266.52	4.292
267.2	4.265
268.04	4.238
268.72	4.211
269.56	4.187
270.41	4.16
271.25	4.133
272.1	4.106
273.11	4.086
273.95	4.062
274.97	4.042
275.98	4.018
277.33	4.005
278.85	3.998
280.37	3.998
281.72	4.011
282.9	4.032
284.08	4.049
285.6	4.059
287.12	4.059
288.64	4.052
290.16	4.045
291.68	4.035
293.2	4.028
294.72	4.025
296.07	4.011
297.42	3.994
298.6	3.974
299.45	3.95
300.46	3.927
301.14	3.9
301.98	3.876
302.66	3.849
303.33	3.822
303.84	3.791
304.51	3.764
305.19	3.737
305.86	3.71
306.54	3.683
307.05	3.656
307.89	3.629
308.4	3.602
309.07	3.575
309.58	3.544
310.25	3.517
310.76	3.49
311.15	3.466
311.94	3.432
312.62	3.405
313.63	3.385
314.81	3.365
316.16	3.348
317.51	3.334
319.03	3.331
320.55	3.331
322.07	3.331
323.59	3.331
325.11	3.334
326.6	3.34
327.98	3.348
329.33	3.361
330.76	3.372
332.2	3.378
333.72	3.378
335.24	3.382
336.76	3.382
338.28	3.382
339.8	3.375
341.32	3.365
342.84	3.358
344.19	3.344
345.71	3.338
347.06	3.327
348.41	3.311
349.59	3.294
350.78	3.273
351.62	3.25
352.46	3.223
353.14	3.195
353.84	3.17
354.49	3.141
354.88	3.119
355.5	3.084
355.92	3.057
356.52	3.026
357.02	2.999
357.53	2.969
358.04	2.942
358.54	2.914
359.05	2.887
359.57	2.859
360.23	2.83
360.74	2.803
361.24	2.776
361.92	2.749
362.43	2.721
363.1	2.694
363.61	2.667
364.28	2.64
364.79	2.613
365.3	2.586
365.97	2.559
366.65	2.532
367.15	2.505
367.66	2.478
368.17	2.451
368.66	2.426
369.18	2.393
369.69	2.366
370.19	2.336
370.7	2.308
371.21	2.281
371.71	2.251
372.22	2.22
372.73	2.193
373.23	2.166
373.74	2.136
374.24	2.109
374.53	2.088
375	2.06
375.48	2.027
375.93	1.997
376.44	1.966
376.78	1.936
377.23	1.914
377.79	1.878
378.3	1.848
378.63	1.818
379.14	1.787
379.48	1.757
379.82	1.726
380.32	1.699
380.83	1.669
381.34	1.638
381.67	1.608
382.18	1.581
382.52	1.55
383.02	1.523
383.36	1.492
383.7	1.462
384.21	1.435
384.38	1.404
384.88	1.374
385.22	1.344
385.56	1.313
386.06	1.286
