Uv/Vis Spectrum: (Z)-Stilbene
Formula: C14H12
CAS: 645-49-8
Boiling point: 159/ 45 mm
Instrument: Cary II M
Origin: INSTITUTE OF ENERGY PROBLEMS OF CHEMICAL PHYSICS, RAS
Wavelength (nm)	Logarithm epsilon
213.86	4.275
214.03	4.275
214.2	4.275
214.37	4.275
214.54	4.275
214.71	4.275
214.88	4.275
215.05	4.275
215.22	4.275
215.38	4.275
215.55	4.275
215.72	4.275
215.89	4.275
216.06	4.275
216.57	4.271
217.58	4.275
218.6	4.282
219.61	4.285
220.63	4.292
221.64	4.299
222.65	4.309
223.67	4.312
224.68	4.312
225.7	4.312
226.71	4.309
227.73	4.299
228.74	4.285
229.75	4.268
230.77	4.248
231.78	4.217
232.8	4.186
233.81	4.152
234.83	4.118
235.84	4.084
236.86	4.05
237.87	4.016
238.88	3.975
239.9	3.934
240.91	3.887
241.93	3.849
242.94	3.819
243.96	3.795
244.97	3.781
245.99	3.778
247	3.781
248.01	3.795
249.03	3.805
250.04	3.819
251.06	3.832
252.07	3.849
253.09	3.866
254.1	3.877
255.11	3.88
256.13	3.894
257.14	3.904
258.16	3.911
259.17	3.921
260.19	3.931
261.2	3.941
262.21	3.948
263.23	3.962
264.24	3.965
265.26	3.975
266.27	3.979
267.29	3.982
268.3	3.989
269.32	3.989
270.33	3.989
271.34	3.992
272.36	3.992
273.37	3.992
274.39	3.992
275.4	3.992
276.42	3.992
277.43	3.992
278.44	3.992
279.46	3.992
280.47	3.992
281.49	3.992
282.5	3.992
283.52	3.992
284.53	3.986
285.55	3.979
286.56	3.972
287.57	3.972
288.59	3.965
289.6	3.958
290.62	3.951
291.63	3.941
292.65	3.934
293.66	3.921
294.68	3.907
295.69	3.894
296.7	3.883
297.72	3.87
298.73	3.853
299.75	3.836
300.76	3.815
301.78	3.798
302.79	3.771
303.8	3.754
304.82	3.73
305.83	3.703
306.85	3.683
307.86	3.652
308.88	3.625
309.89	3.591
310.9	3.563
311.92	3.533
312.93	3.499
313.95	3.465
314.96	3.42
315.98	3.383
316.99	3.346
318.03	3.301
319.04	3.257
320.07	3.209
321.05	3.158
321.59	3.132
322.24	3.102
323.43	3.046
325.25	2.964
325.98	2.935
327.13	2.883
328.15	2.828
329.16	2.767
330.18	2.695
331.19	2.624
332.21	2.556
333.22	2.484
334.24	2.413
335.25	2.324
336.26	2.239
337.28	2.151
338.29	2.059
339.31	1.943
340.32	1.837
341.34	1.701
341.85	1.619
342.35	1.538
342.52	1.513
342.79	1.465
343.3	1.376
343.82	1.286
344.28	1.209
