Uv/Vis Spectrum: 2-quinoxalinamine-1-oxide
Formula: C8H7N3O
CAS: 6479-23-8
Melting point: 187-188
Instrument: Hitachi EPS-3
Origin: INSTITUTE OF ENERGY PROBLEMS OF CHEMICAL PHYSICS, RAS
Wavelength (nm)	Logarithm epsilon
211.379	4.209
212.379	4.17
213.379	4.138
214.379	4.114
215.379	4.096
216.379	4.084
217.379	4.076
218.379	4.073
219.379	4.075
220.379	4.08
221.379	4.09
222.379	4.105
223.449	4.126
224.449	4.149
225.449	4.173
226.449	4.197
227.449	4.219
228.449	4.239
229.449	4.256
230.449	4.27
231.449	4.28
232.449	4.286
233.449	4.287
234.449	4.284
235.449	4.277
236.449	4.267
237.449	4.255
238.449	4.241
239.502	4.226
240.502	4.207
241.502	4.188
242.502	4.172
243.502	4.159
244.502	4.151
245.502	4.148
246.502	4.148
247.502	4.152
248.5	4.158
249.5	4.164
250.5	4.172
251.5	4.182
252.5	4.192
253.5	4.2
254.5	4.203
255.5	4.2
256.5	4.188
257.369	4.164
258.194	4.139
259.194	4.102
260.194	4.061
261.194	4.019
262.194	3.981
263.194	3.947
264.194	3.918
265.194	3.893
266.194	3.871
267.194	3.852
268.194	3.833
269.194	3.816
270.137	3.799
271.137	3.788
272.137	3.779
273.137	3.77
274.137	3.762
275.137	3.753
276.137	3.746
277.137	3.739
278.137	3.734
279.137	3.73
280.137	3.727
281.137	3.726
282.137	3.727
283.137	3.729
284.137	3.733
285.137	3.738
286.137	3.743
287.137	3.749
288.137	3.755
289.137	3.76
290.137	3.765
291.137	3.77
292.137	3.774
293.137	3.78
294.137	3.787
294.17	3.788
295.31	3.795
296.307	3.803
297.446	3.808
298.444	3.814
299.17	3.819
300.17	3.824
301.17	3.829
302.17	3.834
303.17	3.84
304.17	3.844
305.17	3.848
306.17	3.85
307.17	3.849
308.17	3.847
309.17	3.843
310.17	3.837
311.122	3.831
312.122	3.827
313.122	3.823
314.122	3.821
315.122	3.819
316.122	3.817
317.122	3.816
318.122	3.815
319.122	3.814
320.122	3.813
321.122	3.812
322.122	3.812
323.122	3.811
324.122	3.811
325.122	3.811
326.122	3.811
327.122	3.813
328.122	3.815
329.122	3.819
330.101	3.824
331.101	3.83
332.101	3.836
333.101	3.843
334.101	3.85
335.101	3.858
336.101	3.865
337.101	3.872
338.101	3.879
339.101	3.885
340.101	3.891
341.101	3.897
342.101	3.902
343.101	3.908
344.101	3.912
345.101	3.917
346.101	3.921
347.101	3.925
348.101	3.928
349.101	3.931
350.101	3.933
351.101	3.934
352.101	3.934
353.101	3.933
354.101	3.93
355.101	3.926
356.101	3.919
357.101	3.911
358.101	3.901
359.101	3.889
360.101	3.874
361.101	3.858
362.101	3.84
363.101	3.821
364.101	3.801
365.101	3.781
366.101	3.762
367.101	3.746
368.101	3.734
368.147	3.733
369.147	3.707
370.147	3.682
371.147	3.658
372.147	3.633
373.147	3.609
374.147	3.583
375.147	3.557
376.147	3.529
377.147	3.499
378.147	3.466
379.147	3.43
380.147	3.391
