Uv/Vis Spectrum: (+_)-1-(1,2-dimethyl-2-cyclopenten-1-yl)ethanone
Formula: C9H14O
CAS: 64727-45-3
Boiling point: 56/12 mm
Instrument: unknown
Origin: INSTITUTE OF ENERGY PROBLEMS OF CHEMICAL PHYSICS, RAS
Wavelength (nm)	Logarithm epsilon
240.34	2.425
240.84	2.415
241.34	2.401
241.84	2.383
242.34	2.361
242.84	2.337
243.34	2.31
243.84	2.282
244.34	2.252
244.84	2.221
245.34	2.19
245.84	2.159
246.34	2.129
246.84	2.1
247.34	2.072
247.84	2.046
248.34	2.021
248.84	1.998
249.34	1.977
249.84	1.958
250.34	1.939
250.84	1.922
251.34	1.905
251.84	1.889
252.34	1.873
252.84	1.858
253.34	1.842
253.787	1.824
254.287	1.817
254.787	1.808
255.287	1.798
255.787	1.788
256.287	1.778
256.787	1.767
257.287	1.756
257.787	1.745
258.287	1.734
258.787	1.724
259.287	1.714
259.787	1.704
260.287	1.695
260.787	1.687
261.287	1.679
261.787	1.672
262.287	1.666
262.787	1.66
263.287	1.656
263.787	1.651
264.287	1.647
264.787	1.644
265.287	1.642
265.787	1.639
266.287	1.638
266.787	1.636
267.287	1.635
267.787	1.635
268.287	1.634
268.787	1.634
269.287	1.634
269.787	1.634
270.287	1.635
270.787	1.636
271.287	1.637
271.787	1.638
272.287	1.64
272.787	1.642
273.287	1.645
273.787	1.649
274.287	1.653
274.787	1.657
275.287	1.663
275.787	1.669
276.287	1.676
276.787	1.683
276.86	1.685
277.36	1.692
277.86	1.701
278.36	1.711
278.86	1.722
279.36	1.734
279.86	1.746
280.36	1.758
280.86	1.77
281.36	1.781
281.86	1.792
282.36	1.803
282.86	1.813
283.36	1.822
283.86	1.831
284.36	1.84
284.86	1.848
285.36	1.856
285.86	1.864
286.36	1.873
286.86	1.882
287.36	1.892
287.86	1.903
288.084	1.907
288.584	1.915
289.084	1.922
289.584	1.928
290.084	1.932
290.584	1.936
291.084	1.939
291.584	1.94
292.084	1.941
292.584	1.941
293.084	1.941
293.584	1.94
294.084	1.939
294.584	1.938
295.084	1.936
295.584	1.935
296.084	1.935
296.584	1.935
297.084	1.935
297.584	1.936
298.084	1.938
298.584	1.94
299.084	1.943
299.584	1.946
300.084	1.95
300.584	1.954
301.084	1.958
301.584	1.96
302.114	1.964
302.614	1.966
303.114	1.963
303.614	1.957
304.114	1.949
304.614	1.94
305.114	1.93
305.614	1.921
306.114	1.912
306.614	1.905
307.114	1.898
307.614	1.893
308.114	1.889
308.614	1.886
309.114	1.883
309.614	1.881
310.114	1.88
310.614	1.878
311.114	1.875
311.614	1.871
312.114	1.866
312.614	1.859
313.114	1.85
313.614	1.838
314.114	1.824
314.614	1.808
315.114	1.789
315.614	1.768
315.667	1.766
316.167	1.745
316.667	1.723
317.167	1.701
317.667	1.679
318.167	1.659
318.667	1.641
319.167	1.624
319.667	1.61
320.167	1.598
320.667	1.588
321.167	1.579
321.667	1.572
322.167	1.564
322.667	1.556
323.167	1.548
323.667	1.537
324.167	1.524
324.667	1.507
325.167	1.487
325.667	1.463
326.167	1.435
326.667	1.402
327.167	1.365
327.667	1.326
328.167	1.287
328.508	1.271
329.008	1.235
329.508	1.198
330.008	1.161
330.508	1.122
331.008	1.082
331.508	1.04
332.008	0.994
332.508	0.944
333.008	0.89
333.508	0.829
334.008	0.761
334.508	0.683
335.008	0.594
335.508	0.492
336.008	0.379
336.508	0.257
337.008	0.144
