Uv/Vis Spectrum: N-(7-nitro-4-benzofurazanyl)-L-alanine
Formula: C9H8N4O5
CAS: 64917-85-7
Instrument: Cary 15
Origin: INSTITUTE OF ENERGY PROBLEMS OF CHEMICAL PHYSICS, RAS
Wavelength (nm)	Logarithm epsilon
211.026	4.086
212.526	4.092
214.026	4.098
215.526	4.104
217.026	4.11
218.526	4.116
220.026	4.121
221.526	4.125
223.026	4.126
224.526	4.125
226.026	4.12
227.526	4.111
229.026	4.097
230.526	4.078
232.026	4.052
233.526	4.019
235.026	3.978
236.526	3.926
237.936	3.864
238.436	3.839
238.768	3.816
239.768	3.772
240.768	3.716
241.768	3.655
242.768	3.596
243.768	3.54
244.327	3.511
245.827	3.449
247.327	3.408
248.827	3.383
250.327	3.368
251.827	3.359
253.327	3.352
254.827	3.345
256.327	3.338
257.938	3.332
259.458	3.325
260.848	3.321
262.076	3.317
263.076	3.315
264.076	3.313
265.076	3.311
266.076	3.309
267.076	3.307
268.076	3.304
269.076	3.301
270.076	3.297
271.076	3.292
272.076	3.287
273.076	3.281
274.076	3.275
275.076	3.268
276.076	3.26
277.076	3.252
278.076	3.243
279.076	3.235
280.076	3.226
281.076	3.217
282.076	3.208
283.076	3.199
284.076	3.19
285.076	3.182
286.076	3.174
287.076	3.168
288.076	3.162
289.076	3.157
290.076	3.154
291.076	3.152
292.076	3.152
293.076	3.154
294.076	3.158
295.076	3.164
296.076	3.173
297.076	3.184
298.076	3.198
299.043	3.215
300.043	3.229
301.043	3.245
302.043	3.261
303.043	3.279
304.043	3.298
305.043	3.319
306.043	3.34
307.043	3.362
308.043	3.384
309.043	3.407
310.043	3.431
311.043	3.455
312.043	3.479
313.043	3.502
314.043	3.526
315.043	3.549
316.043	3.571
317.043	3.593
318.043	3.614
319.043	3.634
320.043	3.654
321.043	3.672
322.043	3.69
323.043	3.707
324.043	3.723
325.043	3.738
326.043	3.754
327.267	3.773
328.767	3.794
330.267	3.812
331.767	3.827
333.267	3.84
334.767	3.85
336.267	3.857
337.767	3.863
339.267	3.865
340.767	3.866
342.267	3.864
343.767	3.86
345.267	3.853
346.767	3.844
348.267	3.833
349.767	3.819
351.267	3.802
352.767	3.783
354.267	3.761
355.767	3.737
357.267	3.709
358.839	3.676
360.339	3.64
361.839	3.601
363.339	3.56
364.839	3.516
366.339	3.47
367.839	3.422
369.339	3.374
370.839	3.326
372.339	3.28
373.839	3.235
375.339	3.194
376.839	3.157
378.339	3.124
379.839	3.097
381.339	3.076
382.839	3.062
384.339	3.054
385.839	3.053
387.339	3.058
388.839	3.07
390.339	3.087
391.839	3.11
393.339	3.138
394.839	3.169
396.152	3.196
397.652	3.237
399.152	3.275
400.652	3.312
402.152	3.347
403.652	3.38
405.152	3.413
406.652	3.446
408.152	3.478
409.652	3.51
411.152	3.542
412.652	3.574
414.152	3.606
415.652	3.639
417.152	3.671
418.652	3.703
420.152	3.735
421.652	3.768
423.152	3.799
424.652	3.831
426.152	3.862
427.652	3.892
429.152	3.922
430.652	3.951
432.152	3.979
433.652	4.005
435.152	4.031
436.652	4.056
438.152	4.079
439.652	4.101
441.152	4.123
442.652	4.143
444.152	4.163
445.652	4.182
447.152	4.201
448.295	4.218
449.795	4.234
451.295	4.251
452.795	4.267
454.295	4.282
455.795	4.297
457.295	4.311
458.795	4.323
460.295	4.335
461.795	4.345
463.295	4.355
464.795	4.363
466.295	4.37
467.795	4.376
469.295	4.38
470.795	4.383
472.295	4.386
473.795	4.387
475.295	4.387
476.795	4.386
478.295	4.385
479.795	4.382
481.295	4.378
482.795	4.373
484.295	4.367
485.795	4.359
487.295	4.35
488.795	4.338
490.295	4.324
491.795	4.307
493.295	4.287
494.795	4.262
496.295	4.231
497.567	4.203
499.067	4.156
500.567	4.112
502.067	4.067
503.567	4.019
505.067	3.966
506.567	3.907
508.067	3.844
509.567	3.776
511.067	3.705
512.567	3.631
514.067	3.557
