Uv/Vis Spectrum: 8,9-dihydro-9-methyl-7H-imidazo[2,1-i]purine
Formula: C8H9N5
CAS: 65091-07-8
Melting point: not melt below 300
Instrument: Cary 118
Origin: INSTITUTE OF ENERGY PROBLEMS OF CHEMICAL PHYSICS, RAS
Wavelength (nm)	Logarithm epsilon
216.364	4.053
217.864	4.056
219.364	4.061
220.864	4.068
222.364	4.079
223.864	4.094
225.364	4.114
226.864	4.137
228.364	4.164
229.864	4.192
231.364	4.221
232.864	4.248
234.364	4.272
235.864	4.289
237.364	4.298
238.864	4.294
240.364	4.275
241.529	4.249
242.815	4.219
244.315	4.164
245.815	4.088
247.315	4
248.815	3.908
250.315	3.821
251.815	3.745
253.315	3.686
254.815	3.647
256.315	3.629
257.815	3.631
259.315	3.65
260.815	3.677
262.113	3.699
262.991	3.725
264.491	3.746
265.991	3.771
267.491	3.8
268.991	3.83
270.491	3.861
271.991	3.89
273.491	3.918
274.991	3.943
276.491	3.964
277.991	3.982
279.491	3.995
280.991	4.004
282.491	4.009
283.991	4.01
285.491	4.006
286.991	3.999
288.491	3.987
289.991	3.972
291.491	3.954
292.991	3.932
294.491	3.906
295.991	3.877
297.491	3.844
297.61	3.841
299.11	3.806
300.61	3.767
302.11	3.722
303.61	3.673
305.11	3.617
306.61	3.553
308.11	3.481
309.61	3.397
311.11	3.299
312.61	3.184
314.11	3.05
