Uv/Vis Spectrum: Azobenzene,2,2',3,3',5,5',6,6'-octafluoro-4,4'-di(trifluoromethyl)-
Formula: C14F14N2
CAS: 65171-20-2
Melting point: 120-122
Instrument: SF-16
Origin: INSTITUTE OF ENERGY PROBLEMS OF CHEMICAL PHYSICS, RAS
Wavelength (nm)	Logarithm epsilon
210.07	4.12
210.6	4.12
211.13	4.115
214.84	4.038
216.44	4.002
218.03	3.951
219.62	3.905
221.21	3.828
222.8	3.756
224.39	3.658
225.98	3.52
227.57	3.391
229.16	3.248
230.75	3.129
232.34	3.001
233.93	2.801
235.52	2.606
237.11	2.488
238.7	2.421
240.29	2.406
241.88	2.426
243.47	2.478
246.66	2.575
249.84	2.693
251.43	2.791
253.02	2.873
254.61	2.95
256.2	3.001
257.79	3.068
259.38	3.109
260.97	3.15
262.56	3.176
264.15	3.201
265.74	3.212
267.33	3.191
268.92	3.14
270.51	3.047
272.1	2.914
273.69	2.791
275.28	2.642
276.88	2.416
