Uv/Vis Spectrum: 2-Methyl-3-hydroxy-4,5-dihydroxymethylpyridine
Formula: C8H11NO3
CAS: 65-23-6
Melting point: 207 (dec)
Instrument: Beckman DU
Origin: INSTITUTE OF ENERGY PROBLEMS OF CHEMICAL PHYSICS, RAS
Wavelength (nm)	Logarithm epsilon
204.93	4.248
205.1	4.248
205.27	4.248
205.61	4.221
206.29	4.204
206.97	4.187
207.65	4.164
208.32	4.14
209	4.119
209.68	4.089
210.36	4.059
211.04	4.035
211.72	4.001
212.4	3.964
213.08	3.93
213.76	3.886
214.44	3.842
215.12	3.788
215.8	3.727
216.48	3.686
217.16	3.649
217.84	3.615
218.52	3.584
219.2	3.561
219.88	3.537
220.56	3.513
221.24	3.5
221.92	3.496
222.6	3.483
223.28	3.476
223.95	3.466
224.63	3.463
225.31	3.456
225.99	3.446
226.67	3.439
227.35	3.429
228.03	3.422
228.71	3.408
229.39	3.405
230.07	3.391
230.75	3.388
231.43	3.374
232.11	3.368
232.79	3.354
233.47	3.341
234.15	3.33
234.83	3.317
235.51	3.29
236.19	3.269
236.87	3.246
237.55	3.219
238.23	3.198
238.91	3.168
239.58	3.144
240.26	3.114
240.94	3.093
241.62	3.06
242.3	3.029
242.98	3.009
243.66	2.978
244.34	2.958
245.02	2.934
245.7	2.907
246.38	2.883
247.06	2.856
247.74	2.826
248.42	2.806
249.1	2.789
249.78	2.782
250.46	2.775
251.14	2.782
251.82	2.785
252.5	2.799
253.18	2.809
253.86	2.826
254.54	2.846
255.22	2.863
255.89	2.89
256.57	2.917
257.25	2.951
257.93	2.975
258.61	3.005
259.29	3.032
259.97	3.056
260.65	3.076
261.33	3.107
262.01	3.127
262.69	3.154
263.37	3.185
264.05	3.209
264.73	3.239
265.41	3.266
266.09	3.29
266.77	3.31
267.45	3.341
268.13	3.364
268.81	3.395
269.49	3.425
270.17	3.459
270.85	3.479
271.52	3.503
272.2	3.53
272.88	3.551
273.56	3.571
274.24	3.598
274.92	3.618
275.6	3.642
276.28	3.666
276.96	3.686
277.64	3.706
278.32	3.723
279	3.74
279.68	3.754
280.36	3.771
281.04	3.788
281.72	3.798
282.4	3.811
283.08	3.825
283.76	3.832
284.44	3.845
285.12	3.855
285.8	3.862
286.48	3.876
287.15	3.889
287.83	3.896
288.51	3.906
289.19	3.91
289.87	3.913
290.55	3.916
291.23	3.916
291.91	3.913
292.59	3.913
293.27	3.91
293.95	3.906
294.63	3.896
295.31	3.886
295.99	3.872
296.67	3.855
297.35	3.838
298.03	3.821
298.71	3.801
299.39	3.771
300.07	3.733
300.75	3.7
301.43	3.669
302.11	3.632
302.78	3.591
303.46	3.547
304.14	3.486
304.82	3.422
305.5	3.354
306.18	3.273
306.86	3.209
307.54	3.127
308.22	3.043
308.9	2.971
309.58	2.904
310.26	2.816
310.94	2.745
311.62	2.67
312.3	2.572
312.98	2.491
313.66	2.419
314.34	2.308
315.02	2.223
315.7	2.108
316.38	2.06
317.06	2.006
317.74	1.857
318.42	1.756
319.09	1.627
319.77	1.525
320.45	1.4
321.13	1.315
321.81	1.204
322.49	1.105
323.17	1.007
323.85	0.916
324.53	0.831
325.21	0.733
325.89	0.655
