Uv/Vis Spectrum: (R)-3,3-dimethyl-2-(methylamino)butane
Formula: C7H17N
CAS: 65212-00-2
Boiling point: 114
Instrument: unknown
Origin: INSTITUTE OF ENERGY PROBLEMS OF CHEMICAL PHYSICS, RAS
Wavelength (nm)	Logarithm epsilon
184.701	3.358
185.701	3.366
186.701	3.374
187.701	3.377
188.701	3.374
189.701	3.366
190.701	3.354
191.618	3.342
192.618	3.329
193.618	3.315
194.618	3.3
195.618	3.284
196.618	3.266
197.618	3.246
198.618	3.224
199.618	3.201
200.618	3.176
201.618	3.15
202.618	3.123
203.618	3.094
204.618	3.064
205.618	3.033
206.618	2.999
206.628	3.003
207.628	2.965
208.628	2.924
209.628	2.881
210.628	2.837
211.628	2.793
212.628	2.748
213.628	2.705
214.628	2.663
215.628	2.622
216.628	2.582
217.628	2.543
218.628	2.503
219.628	2.46
220.628	2.414
221.628	2.364
222.628	2.309
223.628	2.251
224.628	2.193
225.628	2.147
