Uv/Vis Spectrum: 2-(Pentafluorophenyl)ethanol
Formula: C8H5F5O
CAS: 653-31-6
Boiling point: 85.5-87.0 (14)
Instrument: Spectrophotometer SF-16
Origin: INSTITUTE OF ENERGY PROBLEMS OF CHEMICAL PHYSICS, RAS
Wavelength (nm)	Logarithm epsilon
230	2.66
231	2.65
232	2.66
233	2.67
234	2.68
235	2.7
236	2.72
237	2.75
238	2.77
239	2.79
240	2.81
241	2.82
242	2.82
243	2.82
244	2.81
245	2.81
246	2.79
247	2.75
248	2.71
249	2.67
250	2.62
251	2.57
252	2.52
253	2.48
254	2.43
255	2.39
256	2.35
257	2.32
258	2.29
259	2.27
260	2.25
261	2.2
262	2.15
263	2.11
264	2.07
265	2.03
266	2
267	1.96
268	1.93
269	1.9
270	1.87
271	1.85
272	1.81
273	1.79
274	1.77
275	1.74
276	1.71
277	1.69
278	1.66
279	1.63
280	1.61
281	1.57
282	1.55
283	1.53
284	1.49
285	1.46
286	1.43
287	1.39
288	1.36
289	1.34
