Uv/Vis Spectrum: (Z)-3-(2-cyano-4-methoxyphenyl)-2-propenoic acid
Formula: C11H9NO3
CAS: 65300-89-2
Boiling point: 156-157
Instrument: SF-16
Origin: INSTITUTE OF ENERGY PROBLEMS OF CHEMICAL PHYSICS, RAS
Wavelength (nm)	Logarithm epsilon
211.008	4.258
212.508	4.252
214.008	4.242
215.508	4.229
217.008	4.216
218.508	4.204
220.008	4.194
221.508	4.186
223.008	4.18
224.508	4.175
226.008	4.171
227.508	4.166
228.774	4.16
230.274	4.146
231.774	4.125
233.274	4.1
234.774	4.067
236.274	4.022
237.774	3.965
239.274	3.897
240.774	3.826
242.274	3.76
243.774	3.71
245.301	3.692
246.747	3.692
248.274	3.706
249.774	3.736
251.274	3.762
252.792	3.799
254.292	3.828
255.792	3.852
257.292	3.873
258.792	3.895
260.292	3.917
261.792	3.939
263.292	3.961
264.792	3.982
266.292	4.001
267.792	4.016
269.292	4.026
270.792	4.031
272.292	4.03
273.792	4.025
275.292	4.015
276.792	4.001
278.292	3.985
279.792	3.968
281.246	3.953
282.746	3.937
284.246	3.916
285.746	3.891
287.246	3.863
288.746	3.835
290.246	3.807
291.746	3.782
293.246	3.76
294.746	3.741
296.246	3.726
297.746	3.715
299.246	3.708
300.746	3.704
302.246	3.704
303.746	3.706
305.198	3.706
307.465	3.715
309.297	3.726
310.797	3.737
312.297	3.742
313.797	3.739
315.297	3.728
316.797	3.712
318.297	3.693
319.797	3.672
321.297	3.649
322.797	3.626
324.297	3.602
325.797	3.575
327.297	3.542
328.797	3.5
330.297	3.446
331.797	3.375
333.297	3.285
334.797	3.175
336.297	3.048
337.797	2.909
339.297	2.771
340.797	2.652
342.297	2.582
