Uv/Vis Spectrum: (Z)-3-(2-cyano-4-methoxyphenyl)-2-propenoic acid, methyl ester
Formula: C12H11NO3
CAS: 65300-90-5
Melting point: 104-104.5
Instrument: SF-16
Origin: INSTITUTE OF ENERGY PROBLEMS OF CHEMICAL PHYSICS, RAS
Wavelength (nm)	Logarithm epsilon
199.989	4.198
201.489	4.198
202.989	4.189
204.489	4.178
205.989	4.168
207.489	4.16
208.989	4.154
210.489	4.147
211.989	4.139
213.489	4.128
214.989	4.112
216.489	4.091
217.989	4.065
219.489	4.037
220.989	4.007
222.762	3.982
224.813	3.948
226.455	3.917
228.429	3.869
229.929	3.803
231.429	3.732
232.929	3.667
234.429	3.617
235.929	3.585
237.429	3.574
238.929	3.582
240.429	3.607
241.929	3.643
243.429	3.685
244.929	3.725
246.795	3.759
249.125	3.784
251.455	3.804
253.785	3.823
256.613	3.843
258.113	3.854
259.613	3.863
261.113	3.872
262.613	3.879
264.113	3.885
265.613	3.891
267.113	3.896
268.613	3.901
270.113	3.905
271.613	3.91
273.113	3.914
274.613	3.917
276.113	3.921
277.613	3.924
279.113	3.927
280.613	3.93
282.113	3.931
283.613	3.933
285.113	3.933
286.613	3.932
288.113	3.931
289.613	3.928
291.113	3.923
292.613	3.917
294.113	3.909
295.613	3.899
297.113	3.887
298.613	3.873
300.113	3.855
301.613	3.835
303.113	3.812
304.613	3.785
306.113	3.755
307.613	3.721
309.113	3.684
310.613	3.643
312.113	3.597
313.613	3.547
315.113	3.493
316.613	3.434
318.113	3.371
319.613	3.303
321.113	3.231
322.613	3.153
324.113	3.071
325.613	2.985
327.113	2.893
328.613	2.797
330.113	2.697
