Uv/Vis Spectrum: (E)-3-(2-cyano-5-methoxyphenyl)-2-propenoic acid
Formula: C11H9NO3
CAS: 65300-92-7
Melting point: 214-215
Instrument: SF-16
Origin: INSTITUTE OF ENERGY PROBLEMS OF CHEMICAL PHYSICS, RAS
Wavelength (nm)	Logarithm epsilon
202.43	4.173
204.43	4.207
206.43	4.249
208.43	4.293
210.43	4.337
212.43	4.38
214.43	4.419
216.43	4.455
218.43	4.485
220.43	4.509
222.43	4.529
224.583	4.529
226.43	4.515
228.43	4.489
230.43	4.45
232.43	4.4
232.436	4.401
234.436	4.349
236.436	4.289
238.436	4.232
240.436	4.188
242.436	4.163
244.436	4.158
246.436	4.171
248.436	4.193
250.362	4.21
252.362	4.227
254.362	4.239
256.362	4.248
258.362	4.253
260.362	4.25
262.362	4.235
264.362	4.204
266.144	4.167
268.287	4.131
270.287	4.086
272.287	4.041
274.287	3.997
276.287	3.952
278.287	3.907
280.287	3.863
282.287	3.818
284.287	3.774
286.287	3.729
288.287	3.684
290.287	3.64
292.287	3.595
294.287	3.551
296.287	3.506
298.287	3.462
300.287	3.417
302.287	3.373
304.287	3.329
306.287	3.284
308.287	3.24
310.287	3.196
312.287	3.151
314.287	3.107
316.287	3.063
318.287	3.018
320.287	2.974
322.287	2.93
324.287	2.886
326.287	2.841
