Uv/Vis Spectrum: Cytidine
Formula: C9H13N3O5
CAS: 65-46-3
Melting point: 230-1 dec
Instrument: Beckman DU
Origin: INSTITUTE OF ENERGY PROBLEMS OF CHEMICAL PHYSICS, RAS
Wavelength (nm)	Logarithm epsilon
231.77	3.92
231.88	3.92
232	3.919
232.11	3.919
232.22	3.919
232.33	3.918
232.44	3.918
232.55	3.917
232.79	3.915
233.1	3.913
233.55	3.91
233.99	3.909
234.43	3.906
234.86	3.903
235.32	3.9
235.71	3.898
236.21	3.895
236.65	3.893
237.1	3.89
237.54	3.887
237.98	3.883
238.43	3.879
238.86	3.875
239.31	3.871
239.67	3.867
240.19	3.863
240.64	3.859
241.09	3.855
241.51	3.853
241.92	3.85
242.34	3.848
242.86	3.844
243.3	3.842
243.75	3.839
244.19	3.835
244.63	3.832
245.18	3.829
245.96	3.824
246.76	3.821
247.74	3.818
248.2	3.817
248.63	3.817
249.07	3.817
250.22	3.819
251.29	3.822
251.73	3.823
253.06	3.829
253.5	3.832
253.95	3.835
254.81	3.842
255.28	3.846
255.72	3.85
256.61	3.86
257.05	3.865
257.49	3.871
257.94	3.875
258.38	3.88
259.27	3.89
259.71	3.895
260.16	3.9
260.6	3.905
261.49	3.915
261.93	3.919
262.82	3.93
263.26	3.934
263.7	3.938
264.17	3.943
264.58	3.947
265.31	3.953
265.92	3.958
266.36	3.962
267.25	3.966
267.69	3.967
268.14	3.969
268.79	3.97
269.47	3.969
269.89	3.968
270.38	3.966
270.88	3.963
271.51	3.958
272.13	3.952
272.57	3.949
273.02	3.944
273.46	3.94
273.9	3.935
274.35	3.931
274.79	3.927
