Uv/Vis Spectrum: Benzamide, 2-hydroxy-
Formula: C7H7NO2
CAS: 65-45-2
Melting point: 140
Instrument: SF-8
Origin: INSTITUTE OF ENERGY PROBLEMS OF CHEMICAL PHYSICS, RAS
Wavelength (nm)	Logarithm epsilon
239.61	3.836
239.78	3.835
239.95	3.835
240.12	3.835
240.45	3.828
241.3	3.815
242.14	3.798
242.98	3.778
243.82	3.749
244.67	3.706
245.51	3.662
246.35	3.624
247.2	3.589
248.04	3.554
248.88	3.508
249.72	3.47
250.57	3.43
251.41	3.383
252.25	3.328
253.1	3.276
253.94	3.219
254.78	3.144
255.62	3.067
256.47	2.982
257.31	2.935
258.15	2.9
259	2.87
259.84	2.839
260.68	2.816
261.53	2.803
262.37	2.798
263.21	2.796
264.05	2.801
264.9	2.815
265.74	2.831
266.58	2.853
267.43	2.871
268.27	2.903
269.11	2.936
269.95	2.968
270.8	3.003
271.64	3.027
272.48	3.055
273.33	3.084
274.17	3.114
275.01	3.142
275.86	3.169
276.7	3.192
277.54	3.217
278.38	3.241
279.23	3.268
280.07	3.293
280.91	3.316
281.76	3.34
282.6	3.356
283.44	3.378
284.28	3.4
285.13	3.42
285.97	3.437
286.81	3.453
287.66	3.473
288.5	3.487
289.34	3.498
290.18	3.512
291.03	3.522
291.87	3.534
292.71	3.544
293.56	3.552
294.4	3.56
295.24	3.567
296.09	3.572
296.93	3.575
297.77	3.579
298.61	3.58
299.46	3.579
300.3	3.577
301.14	3.574
301.99	3.567
302.83	3.559
303.67	3.549
304.51	3.535
305.36	3.518
306.2	3.5
307.04	3.482
307.89	3.463
308.73	3.442
309.57	3.42
310.41	3.4
311.26	3.378
312.1	3.355
312.94	3.324
313.79	3.299
314.63	3.274
315.47	3.249
316.32	3.219
317.16	3.191
318	3.156
318.84	3.124
319.69	3.095
320.53	3.065
321.37	3.033
322.22	2.997
323.06	2.96
323.9	2.928
324.74	2.896
325.59	2.864
326.43	2.824
327.27	2.786
328.12	2.754
328.96	2.724
329.8	2.692
330.65	2.682
