Uv/Vis Spectrum: 2-(hydroxymethyl)-5-methoxy-1-methyl-4(1H)-pyridinethione
Formula: C8H11NO2S
CAS: 65769-18-8
Melting point: 199.5-201.5
Instrument: unknown
Origin: INSTITUTE OF ENERGY PROBLEMS OF CHEMICAL PHYSICS, RAS
Wavelength (nm)	Logarithm epsilon
238.998	3.598
240.498	3.677
241.998	3.734
243.498	3.779
244.998	3.821
246.498	3.863
247.998	3.904
249.498	3.941
250.998	3.969
252.498	3.983
253.998	3.976
255.498	3.946
256.998	3.891
258.467	3.812
259.967	3.73
261.467	3.647
262.967	3.562
264.467	3.476
265.72	3.403
267.22	3.364
268.72	3.342
270.22	3.333
271.72	3.334
273.22	3.34
274.72	3.349
276.22	3.357
277.72	3.363
278.89	3.363
280.39	3.363
281.89	3.361
283.39	3.358
284.89	3.352
286.39	3.344
287.89	3.334
289.529	3.321
291.029	3.302
292.529	3.279
294.029	3.258
295.529	3.24
297.029	3.229
298.529	3.227
300.029	3.236
301.529	3.255
303.029	3.285
304.352	3.317
304.467	3.318
305.967	3.351
307.467	3.388
308.967	3.429
310.467	3.472
311.967	3.518
313.467	3.566
314.967	3.614
316.467	3.663
317.967	3.711
319.467	3.759
320.967	3.806
322.467	3.852
323.967	3.896
325.467	3.939
326.967	3.981
328.467	4.022
329.967	4.061
331.467	4.1
332.967	4.138
334.467	4.177
335.769	4.216
337.269	4.251
338.769	4.277
340.269	4.296
341.769	4.306
343.269	4.307
344.769	4.301
346.269	4.286
347.769	4.264
349.269	4.234
350.657	4.203
352.157	4.141
353.657	4.078
355.157	4.007
356.657	3.928
358.157	3.843
359.657	3.76
