Uv/Vis Spectrum: 2,6-Dimethylbenzonitrile
Formula: C9H9N
CAS: 6575-13-9
Instrument: Cary 17
Origin: INSTITUTE OF ENERGY PROBLEMS OF CHEMICAL PHYSICS, RAS
Wavelength (nm)	Logarithm epsilon
234.48	3.904
234.7	3.902
234.92	3.889
235.14	3.87
235.36	3.845
235.58	3.828
235.8	3.813
236.02	3.798
236.24	3.775
236.45	3.745
236.67	3.724
236.89	3.695
237.11	3.674
237.33	3.655
237.55	3.636
237.77	3.614
237.99	3.593
238.21	3.551
238.43	3.538
238.65	3.5
238.87	3.471
239.09	3.399
239.31	3.367
239.53	3.338
239.75	3.253
239.97	3.232
240.19	3.202
240.41	3.179
240.63	3.128
240.85	3.105
241.07	3.08
241.29	3.061
241.51	3.037
241.73	3.023
241.95	2.982
242.16	2.97
242.38	2.951
242.6	2.932
242.82	2.919
243.04	2.906
243.26	2.892
243.48	2.864
243.7	2.847
243.92	2.834
244.14	2.822
244.36	2.809
244.58	2.794
244.8	2.784
245.02	2.771
245.24	2.758
245.46	2.748
245.68	2.737
245.9	2.716
246.12	2.703
246.34	2.691
246.56	2.68
246.78	2.668
247	2.661
247.22	2.653
247.44	2.646
247.65	2.638
247.87	2.629
248.09	2.625
248.31	2.617
248.53	2.613
248.75	2.606
248.97	2.6
249.19	2.587
249.41	2.583
249.63	2.579
249.85	2.57
250.07	2.568
250.29	2.564
250.51	2.56
250.73	2.56
250.95	2.558
251.17	2.558
251.39	2.558
251.61	2.558
251.83	2.555
252.05	2.555
252.27	2.555
252.49	2.555
252.71	2.555
252.93	2.555
253.15	2.555
253.36	2.558
253.58	2.558
253.8	2.558
254.02	2.558
254.24	2.56
254.46	2.56
254.68	2.56
254.9	2.562
255.12	2.566
255.34	2.568
255.56	2.57
255.78	2.57
256	2.572
256.22	2.579
256.44	2.581
256.66	2.583
256.88	2.585
257.1	2.589
257.32	2.591
257.54	2.591
257.76	2.594
257.98	2.596
258.2	2.596
258.42	2.6
258.64	2.604
258.85	2.606
259.07	2.61
259.29	2.615
259.51	2.617
259.73	2.623
259.95	2.625
260.17	2.629
260.39	2.636
260.61	2.638
260.83	2.64
261.05	2.646
261.27	2.648
261.49	2.657
261.71	2.659
261.93	2.663
262.15	2.67
262.37	2.672
262.59	2.68
262.81	2.682
263.03	2.691
263.25	2.693
263.47	2.701
263.69	2.703
263.91	2.712
264.13	2.714
264.35	2.722
264.56	2.725
264.78	2.731
265	2.733
265.22	2.735
265.44	2.741
265.66	2.746
265.88	2.754
266.1	2.756
266.32	2.765
266.54	2.771
266.76	2.777
266.98	2.786
267.2	2.788
267.42	2.796
267.64	2.805
267.86	2.809
268.08	2.818
268.3	2.826
268.52	2.832
268.74	2.841
268.96	2.849
269.18	2.854
269.4	2.862
269.62	2.873
269.84	2.875
270.05	2.877
270.27	2.894
270.49	2.904
270.71	2.913
270.93	2.923
271.15	2.932
271.37	2.938
271.59	2.949
271.81	2.959
272.03	2.97
272.25	2.978
272.47	2.989
272.69	2.997
272.91	3.004
273.13	3.014
273.35	3.016
273.57	3.025
273.79	3.035
274.01	3.044
274.23	3.052
274.45	3.063
274.67	3.071
274.89	3.082
275.11	3.092
275.33	3.103
275.55	3.113
275.76	3.124
275.98	3.133
276.2	3.145
276.42	3.156
276.64	3.158
276.86	3.162
277.08	3.173
277.3	3.181
277.52	3.192
277.74	3.202
277.96	3.213
278.18	3.221
278.4	3.226
278.62	3.23
278.84	3.236
279.06	3.24
279.28	3.242
279.5	3.247
279.72	3.245
279.94	3.247
280.16	3.247
280.38	3.247
280.6	3.247
280.82	3.247
281.04	3.247
281.25	3.247
281.47	3.245
281.69	3.24
281.91	3.238
282.13	3.234
282.35	3.228
282.57	3.226
282.79	3.223
283.01	3.219
283.23	3.219
283.45	3.219
283.67	3.219
283.89	3.219
284.11	3.219
284.33	3.219
284.55	3.219
284.77	3.219
284.99	3.223
285.21	3.226
285.43	3.228
285.65	3.228
285.87	3.228
286.09	3.228
286.31	3.228
286.53	3.228
286.75	3.228
286.96	3.228
287.18	3.226
287.4	3.219
287.62	3.219
287.84	3.219
288.06	3.217
288.28	3.219
288.5	3.219
288.72	3.223
288.94	3.23
289.16	3.24
289.38	3.249
289.6	3.251
289.82	3.255
290.04	3.257
290.26	3.259
290.48	3.261
290.7	3.261
290.92	3.266
291.14	3.266
291.36	3.268
291.58	3.268
291.8	3.268
292.02	3.268
292.24	3.268
292.45	3.266
292.67	3.259
292.89	3.257
293.11	3.249
293.33	3.245
293.55	3.23
293.77	3.219
293.99	3.206
294.21	3.185
294.43	3.175
294.65	3.143
294.87	3.122
295.09	3.103
295.31	3.082
295.53	3.065
295.75	3.046
295.97	2.995
296.19	2.966
296.41	2.94
296.63	2.858
296.85	2.809
297.07	2.703
297.29	2.64
