Uv/Vis Spectrum: 2-(hydroxymethyl)-5-methoxy-4(1H)-pyridinethione
Formula: C7H9NO2S
CAS: 65769-13-3
Melting point: 154-156
Instrument: unknown
Origin: INSTITUTE OF ENERGY PROBLEMS OF CHEMICAL PHYSICS, RAS
Wavelength (nm)	Logarithm epsilon
239.275	3.736
239.804	3.736
239.836	3.733
241.336	3.761
242.836	3.783
244.336	3.8
245.836	3.812
247.336	3.818
248.836	3.819
250.336	3.814
251.836	3.805
253.336	3.789
254.637	3.771
256.101	3.752
257.601	3.726
259.101	3.694
260.601	3.659
262.101	3.622
263.601	3.586
265.101	3.552
266.189	3.527
267.689	3.512
269.189	3.502
270.689	3.496
272.189	3.496
273.689	3.5
275.189	3.508
276.655	3.519
278.155	3.525
279.655	3.53
281.155	3.535
282.655	3.536
284.155	3.535
285.813	3.532
287.122	3.526
288.655	3.521
289.503	3.513
289.551	3.514
291.051	3.502
292.551	3.492
294.051	3.484
295.551	3.48
297.051	3.478
298.551	3.481
300.051	3.49
300.952	3.498
302.452	3.518
303.952	3.539
305.452	3.562
306.952	3.585
308.452	3.61
309.952	3.636
311.452	3.664
312.952	3.692
314.452	3.722
315.952	3.753
317.452	3.785
318.952	3.818
320.452	3.853
321.952	3.888
323.452	3.925
324.952	3.964
326.371	3.994
327.871	4.027
329.371	4.052
330.871	4.071
332.371	4.085
333.871	4.094
335.371	4.099
336.871	4.099
338.371	4.096
339.871	4.09
341.371	4.081
342.871	4.069
344.371	4.055
345.871	4.037
348.056	3.994
349.556	3.959
351.056	3.914
352.556	3.855
354.056	3.777
355.556	3.682
356.649	3.621
