Uv/Vis Spectrum: 2-Carboxyisonitrosoacetanilide
Formula: C9H8N2O4
CAS: 6579-46-0
Melting point: 230-231
Instrument: Cary 14
Origin: INSTITUTE OF ENERGY PROBLEMS OF CHEMICAL PHYSICS, RAS
Wavelength (nm)	Logarithm epsilon
258.415	2.901
259.215	2.784
260.015	2.686
260.815	2.6
261.615	2.52
262.415	2.439
263.215	2.347
264.015	2.24
264.815	2.108
265.316	2.024
265.734	1.966
266.145	1.896
266.945	1.828
267.745	1.814
268.544	1.882
269.144	2.012
269.744	2.131
270.344	2.242
270.944	2.345
271.544	2.443
272.144	2.535
272.744	2.623
273.344	2.707
273.944	2.786
274.544	2.862
275.144	2.934
275.744	3.002
276.344	3.065
276.944	3.124
277.544	3.178
278.144	3.227
278.744	3.27
279.344	3.308
279.944	3.341
280.544	3.368
281.144	3.391
281.744	3.41
281.946	3.413
282.546	3.431
283.146	3.448
283.746	3.464
284.346	3.478
284.946	3.492
285.546	3.504
286.146	3.516
286.746	3.527
287.346	3.538
287.946	3.548
288.546	3.557
289.146	3.566
289.746	3.575
290.346	3.582
290.946	3.59
291.546	3.596
292.146	3.602
292.746	3.607
293.346	3.611
293.946	3.614
294.546	3.616
295.146	3.616
295.746	3.615
296.346	3.612
296.946	3.607
297.546	3.6
298.16	3.593
298.786	3.586
299.447	3.579
299.999	3.571
300.599	3.568
301.199	3.561
301.799	3.553
302.399	3.544
302.999	3.537
303.599	3.532
304.199	3.529
304.799	3.529
305.399	3.53
305.999	3.532
306.599	3.532
306.834	3.53
307.329	3.53
307.658	3.527
308.258	3.523
308.858	3.518
309.458	3.514
310.058	3.508
310.658	3.502
311.258	3.495
311.858	3.487
312.458	3.478
313.058	3.469
313.658	3.459
314.258	3.449
314.858	3.44
315.512	3.436
316.112	3.428
316.712	3.41
317.312	3.382
317.912	3.344
318.512	3.296
319.112	3.238
319.712	3.17
320.312	3.092
320.912	3.004
321.215	2.971
321.425	3.005
321.677	3.144
321.761	3.295
321.844	3.419
321.886	3.581
321.928	3.668
321.97	3.755
322.054	3.799
322.096	3.826
322.222	3.863
322.397	3.883
322.641	3.897
322.977	3.897
323.343	3.891
323.804	3.88
324.349	3.868
324.856	3.855
325.456	3.845
326.056	3.833
326.656	3.82
327.256	3.805
327.856	3.789
328.456	3.773
329.056	3.756
329.656	3.738
330.256	3.719
330.856	3.701
331.456	3.682
332.056	3.662
332.656	3.643
333.256	3.623
333.856	3.603
334.456	3.582
335.056	3.562
335.656	3.541
336.256	3.52
336.856	3.499
337.456	3.477
338.056	3.455
338.656	3.433
339.256	3.41
339.856	3.387
340.456	3.363
341.056	3.339
341.656	3.313
342.256	3.288
342.856	3.261
343.456	3.234
344.056	3.206
344.656	3.178
345.256	3.148
345.856	3.118
346.456	3.088
347.056	3.057
347.656	3.025
348.256	2.994
348.856	2.962
349.456	2.93
350.056	2.898
350.656	2.866
351.256	2.835
351.856	2.805
352.456	2.777
353.056	2.749
353.656	2.724
354.184	2.7
354.852	2.668
355.452	2.636
356.052	2.608
356.652	2.581
357.252	2.556
357.852	2.531
358.452	2.506
359.052	2.481
359.652	2.455
360.252	2.428
360.852	2.401
361.452	2.372
362.052	2.343
362.652	2.313
363.252	2.282
363.852	2.25
364.452	2.218
365.052	2.187
365.652	2.155
366.252	2.124
366.852	2.094
367.452	2.065
368.052	2.037
368.652	2.01
369.252	1.985
369.852	1.961
370.452	1.938
371.052	1.917
371.652	1.896
372.252	1.875
372.852	1.854
373.452	1.832
374.052	1.808
374.652	1.781
375.252	1.749
