Uv/Vis Spectrum: 2-(hydroxymethyl)-5-methoxy-4-(methylthio)pyridine
Formula: C8H11NO2S
CAS: 65769-23-5
Melting point: 108
Instrument: unknown
Origin: INSTITUTE OF ENERGY PROBLEMS OF CHEMICAL PHYSICS, RAS
Wavelength (nm)	Logarithm epsilon
242.039	3.605
243.539	3.633
245.039	3.667
246.539	3.705
248.039	3.748
249.539	3.793
251.039	3.841
252.539	3.89
254.201	3.95
255.701	3.997
257.201	4.02
258.701	4.027
260.201	4.025
261.701	4.019
263.201	4.01
264.701	3.998
266.201	3.98
267.898	3.951
269.333	3.93
270.833	3.907
272.333	3.884
273.833	3.862
275.333	3.845
276.833	3.832
278.333	3.825
279.833	3.824
281.333	3.829
282.833	3.84
284.333	3.854
285.833	3.871
286.443	3.878
286.526	3.877
288.026	3.899
289.526	3.924
291.026	3.944
292.526	3.954
294.026	3.95
295.526	3.933
297.026	3.906
298.526	3.876
300.079	3.809
301.579	3.758
303.079	3.707
304.579	3.65
306.079	3.582
307.579	3.505
309.079	3.42
310.194	3.356
