Uv/Vis Spectrum: Benzoic Acid
Formula: C7H6O2
CAS: 65-85-0
Melting point: 122.4
Boiling point: 249.2
Instrument: Beckman spectrophotometer
Origin: INSTITUTE OF ENERGY PROBLEMS OF CHEMICAL PHYSICS, RAS
Wavelength (nm)	Logarithm epsilon
210.8	3.87657
211.758	3.89944
212.822	3.92434
214.036	3.94951
215.444	3.97316
217.092	3.99351
217.092	3.99351
218.99	3.99258
220.888	3.99151
222.786	3.99037
222.786	3.99037
223.946	3.97237
225.016	3.95277
225.997	3.93189
226.891	3.91006
227.7	3.8876
228.425	3.86481
229.069	3.84203
229.631	3.81958
229.861	3.76651
229.903	3.76832
229.953	3.76998
230.02	3.77158
230.02	3.77158
230.115	3.79777
230.327	3.77217
230.522	3.77693
230.641	3.77269
230.972	3.77307
230.972	3.77307
231.193	3.76183
231.504	3.74513
231.893	3.72402
232.347	3.69955
232.855	3.67278
233.404	3.64475
233.981	3.61651
234.576	3.58912
235.174	3.56362
235.765	3.54107
236.335	3.52251
236.874	3.50901
237.368	3.5016
237.368	3.5016
237.799	3.48258
238.253	3.46329
238.728	3.44375
239.22	3.42397
239.726	3.40399
240.244	3.38381
240.769	3.36345
241.3	3.34294
241.833	3.32229
242.365	3.30152
242.893	3.28066
243.413	3.25972
243.923	3.23873
244.421	3.21769
244.902	3.19663
245.363	3.17557
245.802	3.15454
246.216	3.13354
246.601	3.11259
246.955	3.09173
247.274	3.07096
247.555	3.0503
247.796	3.02979
249.404	2.9117
249.527	2.91741
249.649	2.92311
249.772	2.92882
249.772	2.92882
249.988	2.96147
250.012	2.92974
250.086	2.93546
250.27	2.93058
250.536	2.93128
250.536	2.93128
250.772	2.92155
251.071	2.9091
251.44	2.89457
251.887	2.87859
252.419	2.86182
253.043	2.8449
253.767	2.82845
254.6	2.81314
255.547	2.79959
256.618	2.78844
257.819	2.78035
259.158	2.77595
260.643	2.77588
262.281	2.78078
264.08	2.79129
264.08	2.79129
264.673	2.80548
265.349	2.81917
266.343	2.83078
266.343	2.83078
267.426	2.85254
268.514	2.86992
269.602	2.8832
270.686	2.89266
271.76	2.89856
272.822	2.90117
273.866	2.90077
274.888	2.89762
275.883	2.89199
276.847	2.88416
277.777	2.8744
278.666	2.86297
279.511	2.85014
280.308	2.8362
281.052	2.8214
281.738	2.80601
282.363	2.79032
282.921	2.77458
283.409	2.75907
283.409	2.75907
283.685	2.73878
283.957	2.71847
284.226	2.69815
284.491	2.67781
284.753	2.65746
285.012	2.63709
285.267	2.61671
285.52	2.59632
285.77	2.57591
286.018	2.55549
286.263	2.53506
286.505	2.51463
286.746	2.49418
286.984	2.47372
287.221	2.45325
287.456	2.43277
287.689	2.41229
287.921	2.3918
288.151	2.3713
288.381	2.35079
288.609	2.33028
288.836	2.30977
289.063	2.28924
289.289	2.26872
289.514	2.24818
289.739	2.22765
289.964	2.20711
290.189	2.18657
290.414	2.16603
290.639	2.14549
290.864	2.12494
291.09	2.1044
291.317	2.08385
291.544	2.06331
291.772	2.04277
