Uv/Vis Spectrum: 2,4-dihydro-4,5-diphenyl-3H-1,2,4-triazole-3-thione
Formula: C14H11N3S
CAS: 6596-82-3
Melting point: 282-283
Instrument: SF-4
Origin: INSTITUTE OF ENERGY PROBLEMS OF CHEMICAL PHYSICS, RAS
Wavelength (nm)	Logarithm epsilon
232.944	4.063
233.944	4.065
234.944	4.069
235.944	4.074
236.944	4.08
237.944	4.086
238.944	4.092
239.944	4.097
240.944	4.1
241.944	4.102
242.944	4.103
243.944	4.101
244.944	4.098
245.944	4.092
246.944	4.085
247.944	4.077
248.944	4.067
249.944	4.057
250.944	4.047
251.944	4.038
252.944	4.029
253.082	4.027
254.082	4.023
255.082	4.018
256.082	4.012
257.082	4.008
258.082	4.006
259.082	4.007
260.082	4.01
261.082	4.017
262.082	4.025
263.082	4.036
264.082	4.048
265.082	4.059
266.082	4.07
267.082	4.08
268.082	4.088
269.082	4.092
270.082	4.093
271.082	4.091
272.082	4.086
273.082	4.079
274.082	4.07
275.082	4.063
275.247	4.061
276.247	4.051
277.247	4.04
278.247	4.03
279.247	4.02
280.247	4.01
281.247	4
282.247	3.99
283.247	3.979
284.247	3.969
285.247	3.959
286.247	3.949
287.247	3.939
288.247	3.93
289.247	3.922
290.247	3.914
291.247	3.906
292.247	3.9
293.247	3.893
294.247	3.888
295.247	3.883
296.061	3.879
297.061	3.875
298.061	3.871
299.061	3.866
300.061	3.862
301.061	3.856
302.061	3.85
303.061	3.844
304.061	3.836
305.061	3.825
306.061	3.813
307.061	3.797
308.061	3.778
309.061	3.754
309.981	3.728
310.981	3.693
311.981	3.656
312.981	3.616
313.981	3.574
314.981	3.531
315.981	3.488
316.981	3.449
317.82	3.419
