Uv/Vis Spectrum: Benzeneacetic acid 2-phenylhydrazide
Formula: C14H14N2O
CAS: 6596-66-3
Melting point: 170-172
Instrument: Cary
Origin: INSTITUTE OF ENERGY PROBLEMS OF CHEMICAL PHYSICS, RAS
Wavelength (nm)	Logarithm epsilon
216.825	3.954
217.825	3.958
218.825	3.959
219.825	3.961
220.825	3.961
221.825	3.962
222.825	3.963
223.825	3.964
224.825	3.965
225.825	3.967
226.825	3.969
227.825	3.972
228.825	3.975
229.825	3.979
230.825	3.983
231.825	3.987
232.825	3.993
233.825	3.998
234.825	4.005
235.825	4.012
236.825	4.02
237.825	4.029
238.825	4.038
239.825	4.047
240.825	4.056
241.825	4.064
242.825	4.07
243.825	4.072
244.825	4.07
245.825	4.061
246.758	4.042
247.758	4.017
248.758	3.985
249.758	3.947
250.758	3.905
251.758	3.859
252.758	3.809
253.758	3.757
254.74	3.704
255.74	3.652
256.74	3.592
257.74	3.527
258.74	3.459
259.74	3.393
260.74	3.33
261.6	3.283
262.6	3.226
263.6	3.183
264.6	3.151
265.6	3.127
266.6	3.112
267.6	3.103
268.6	3.098
269.6	3.097
270.6	3.099
271.6	3.103
272.6	3.107
273.6	3.113
274.6	3.118
275.6	3.123
276.6	3.127
277.6	3.131
278.5	3.134
279.5	3.137
280.5	3.139
281.5	3.141
282.5	3.144
283.5	3.146
284.5	3.148
285.5	3.149
286.5	3.148
287.5	3.142
288.5	3.131
289.548	3.111
290.548	3.088
291.548	3.061
292.548	3.032
293.548	3
294.548	2.967
295.548	2.934
