Uv/Vis Spectrum: Tricyclo[5.3.0.02,8]deca-3,5-diene
Formula: C10H12
CAS: 66039-62-1
Instrument: unknown
Origin: INSTITUTE OF ENERGY PROBLEMS OF CHEMICAL PHYSICS, RAS
Wavelength (nm)	Logarithm epsilon
231.88	2.906
232.02	2.903
232.3	2.879
232.73	2.865
233.15	2.853
233.58	2.837
234	2.824
234.42	2.813
234.85	2.804
235.27	2.791
235.69	2.784
236.12	2.774
236.54	2.762
236.96	2.752
237.39	2.741
237.81	2.733
238.24	2.725
238.66	2.72
239.08	2.712
239.51	2.709
239.93	2.706
240.35	2.697
240.78	2.695
241.2	2.692
241.62	2.689
242.05	2.689
242.47	2.686
242.9	2.689
243.32	2.692
243.74	2.695
244.17	2.697
244.59	2.706
245.01	2.709
245.44	2.709
245.86	2.712
246.28	2.717
246.71	2.723
247.13	2.725
247.56	2.733
247.98	2.744
248.4	2.752
248.83	2.762
249.25	2.774
249.67	2.786
250.1	2.795
250.52	2.807
250.94	2.815
251.37	2.822
251.79	2.83
252.22	2.839
252.64	2.843
253.06	2.849
253.49	2.859
253.91	2.867
254.33	2.875
254.76	2.882
255.18	2.886
255.6	2.894
256.03	2.899
256.45	2.904
256.88	2.917
257.3	2.925
257.72	2.939
258.15	2.955
258.57	2.971
258.99	2.99
259.42	3.006
259.84	3.024
260.26	3.038
260.69	3.045
261.11	3.052
261.54	3.058
261.96	3.063
262.38	3.069
262.81	3.073
263.23	3.075
263.65	3.08
264.08	3.084
264.5	3.086
264.92	3.088
265.35	3.092
265.77	3.093
266.2	3.098
266.62	3.099
267.04	3.103
267.47	3.113
267.89	3.124
268.31	3.134
268.74	3.158
269.16	3.181
269.58	3.213
270.01	3.227
270.43	3.243
270.86	3.256
271.28	3.26
271.7	3.26
272.13	3.257
272.55	3.253
272.97	3.249
273.4	3.245
273.82	3.241
274.24	3.237
274.67	3.233
275.09	3.229
275.52	3.225
275.94	3.221
276.36	3.217
276.79	3.214
277.21	3.212
277.63	3.211
278.06	3.212
278.48	3.217
278.9	3.226
279.33	3.237
279.75	3.258
280.18	3.287
280.6	3.319
281.02	3.35
281.45	3.37
281.87	3.384
282.29	3.388
282.72	3.382
283.14	3.364
283.56	3.347
283.99	3.331
284.41	3.314
284.84	3.294
285.26	3.281
285.68	3.266
286.11	3.256
286.53	3.245
286.95	3.233
287.38	3.217
287.8	3.208
288.22	3.195
288.65	3.185
289.07	3.174
289.5	3.167
289.92	3.162
290.34	3.159
290.77	3.16
291.19	3.164
291.61	3.182
292.04	3.207
292.46	3.233
292.74	3.276
292.88	3.291
293.03	3.304
293.17	3.315
293.31	3.331
293.45	3.349
293.59	3.356
293.73	3.367
293.87	3.37
294.01	3.373
294.16	3.376
294.3	3.381
294.44	3.381
294.58	3.381
294.72	3.377
294.86	3.367
295	3.361
295.14	3.35
295.28	3.34
295.43	3.327
295.57	3.321
295.71	3.314
295.85	3.31
296.27	3.267
296.7	3.244
297.12	3.195
297.54	3.163
297.97	3.112
298.39	3.086
298.82	3.059
299.24	3.031
299.66	2.996
300.09	2.969
300.51	2.944
300.93	2.924
301.36	2.906
301.78	2.886
302.2	2.867
302.63	2.849
303.05	2.83
303.48	2.817
303.9	2.811
304.32	2.813
304.75	2.82
305.17	2.839
305.59	2.859
306.02	2.894
306.44	2.955
306.86	2.996
307.29	3.032
307.71	3.085
308.14	3.116
308.56	3.113
308.98	3.1
309.41	3.083
309.83	3.044
310.25	2.99
310.68	2.894
311.1	2.767
311.52	2.646
311.95	2.539
312.37	2.442
312.79	2.33
313.22	2.188
313.64	2.095
314.07	1.992
