Uv/Vis Spectrum: 1-Hydroxy-3-methyl-3H-dibenz[f,ij]isoquinoline-2,7-dione
Formula: C17H11NO3
CAS: 6616-32-6
Instrument: SF-4A
Origin: INSTITUTE OF ENERGY PROBLEMS OF CHEMICAL PHYSICS, RAS
Wavelength (nm)	Logarithm epsilon
259.5	3.601
260.5	3.555
261.5	3.514
262.5	3.477
263.5	3.443
264.5	3.412
265.5	3.384
266.5	3.358
267.5	3.335
268.5	3.314
269.5	3.296
270.5	3.279
271.5	3.265
272.5	3.252
273.5	3.241
274.5	3.232
275.5	3.225
276.5	3.219
277.5	3.215
278.5	3.212
279.5	3.212
280.5	3.212
281.5	3.215
282.5	3.219
283.5	3.224
284.5	3.23
285.5	3.238
286.5	3.247
287.5	3.257
288.5	3.268
289.5	3.279
290.5	3.291
291.459	3.302
292.459	3.313
293.459	3.325
294.459	3.337
295.459	3.349
296.459	3.361
297.459	3.373
298.459	3.385
299.459	3.397
300.459	3.409
301.459	3.42
302.459	3.43
303.459	3.438
304.459	3.444
305.459	3.448
306.459	3.448
307.459	3.442
307.557	3.441
308.557	3.433
309.557	3.428
310.557	3.426
311.557	3.426
312.557	3.429
313.239	3.43
314.239	3.442
315.239	3.448
316.239	3.447
317.239	3.436
318.239	3.412
319.394	3.365
320.394	3.336
321.394	3.308
322.394	3.282
323.394	3.257
324.394	3.236
325.394	3.217
326.394	3.202
327.394	3.191
328.394	3.182
329.394	3.177
330.394	3.175
331.394	3.176
332.394	3.179
333.394	3.183
334.394	3.19
335.394	3.197
336.394	3.205
337.394	3.214
338.394	3.223
339.394	3.233
340.394	3.243
341.394	3.254
342.394	3.267
343.067	3.287
343.831	3.298
344.831	3.321
345.831	3.341
346.831	3.358
347.831	3.374
348.831	3.387
349.831	3.397
350.831	3.406
351.831	3.414
352.831	3.42
353.831	3.425
354.831	3.429
355.831	3.433
356.831	3.436
357.831	3.439
358.831	3.442
360.349	3.447
361.349	3.451
362.349	3.455
363.349	3.459
364.349	3.463
365.349	3.466
366.349	3.47
367.349	3.473
368.349	3.477
369.349	3.48
370.349	3.483
371.349	3.486
372.349	3.489
373.349	3.492
374.349	3.495
375.349	3.497
376.349	3.5
377.349	3.503
378.349	3.506
379.349	3.509
380.349	3.512
381.349	3.515
382.349	3.519
383.349	3.522
384.349	3.526
385.349	3.529
386.349	3.533
387.349	3.537
388.349	3.541
389.349	3.546
389.467	3.546
390.467	3.55
391.467	3.555
392.467	3.56
393.467	3.565
394.467	3.568
395.467	3.57
396.467	3.57
397.467	3.567
398.467	3.563
399.467	3.556
400.467	3.548
401.467	3.538
402.467	3.528
403.467	3.517
404.671	3.499
405.671	3.479
406.671	3.46
407.671	3.441
408.671	3.423
409.671	3.405
410.671	3.388
411.671	3.37
412.671	3.353
413.671	3.335
414.671	3.317
415.671	3.298
416.671	3.279
417.671	3.258
418.671	3.236
419.671	3.212
420.671	3.186
421.671	3.159
422.671	3.129
423.671	3.097
424.671	3.063
425.671	3.026
426.671	2.987
427.671	2.945
428.671	2.901
429.671	2.854
430.671	2.805
431.671	2.755
432.671	2.702
433.671	2.648
