Uv/Vis Spectrum: 3,8-Dimethyl-4,6-decadiyne-3,8-diol
Formula: C12H18O2
CAS: 6626-33-1
Melting point: 89-91
Instrument: Zeiss PMQ II
Origin: INSTITUTE OF ENERGY PROBLEMS OF CHEMICAL PHYSICS, RAS
Wavelength (nm)	Logarithm epsilon
182.67	4.742
182.74	4.742
182.81	4.74
182.88	4.738
182.95	4.736
183.03	4.736
183.1	4.734
183.17	4.732
183.24	4.732
183.31	4.73
183.38	4.727
183.46	4.727
183.53	4.725
183.6	4.723
183.67	4.723
183.74	4.721
183.82	4.719
183.89	4.717
183.96	4.717
184.03	4.715
184.1	4.713
184.18	4.713
184.25	4.71
184.32	4.708
184.39	4.708
184.47	4.706
184.54	4.704
184.61	4.704
184.69	4.702
184.76	4.7
184.83	4.7
185.2	4.676
185.56	4.668
185.93	4.657
186.3	4.649
186.67	4.636
187.04	4.625
187.42	4.617
187.79	4.61
188.17	4.604
188.55	4.6
188.93	4.598
189.31	4.598
189.7	4.595
190.08	4.591
190.47	4.58
190.85	4.557
191.24	4.536
191.64	4.508
192.03	4.485
192.42	4.455
192.82	4.425
193.22	4.385
193.62	4.346
194.02	4.287
194.42	4.225
194.82	4.159
195.23	4.091
195.64	4.037
196.05	3.965
196.46	3.901
196.87	3.831
197.28	3.763
197.7	3.737
198.12	3.637
198.54	3.522
198.96	3.401
199.38	3.299
199.72	3.113
199.81	3.109
199.89	3.105
199.98	3.098
200.07	3.094
200.15	3.071
200.58	2.977
201.01	2.888
201.44	2.783
201.88	2.683
202.31	2.589
202.75	2.483
203.19	2.421
203.63	2.355
204.07	2.302
204.52	2.242
204.97	2.198
205.42	2.161
205.87	2.146
206.32	2.132
206.78	2.123
207.23	2.117
207.69	2.117
208.15	2.121
208.62	2.123
209.08	2.129
209.55	2.136
210.02	2.134
210.49	2.129
210.97	2.127
211.44	2.129
211.92	2.134
212.4	2.138
212.88	2.144
213.37	2.151
213.86	2.161
214.34	2.178
214.84	2.191
215.33	2.204
215.83	2.221
216.32	2.238
216.83	2.253
217.33	2.272
217.83	2.291
218.34	2.304
218.85	2.325
219.36	2.338
219.88	2.345
220.4	2.338
220.91	2.332
221.44	2.323
221.96	2.319
222.49	2.315
223.02	2.313
223.55	2.319
224.08	2.325
224.62	2.332
225.16	2.342
225.7	2.364
226.25	2.381
226.8	2.394
227.35	2.404
227.9	2.421
228.46	2.453
229.01	2.477
229.58	2.498
230.14	2.515
230.71	2.519
231.28	2.506
231.85	2.485
232.42	2.462
233	2.434
233.58	2.413
234.17	2.402
234.75	2.394
235.34	2.391
235.93	2.391
236.53	2.391
237.13	2.4
237.73	2.411
238.34	2.423
238.94	2.44
239.55	2.46
240.17	2.479
240.79	2.496
241.41	2.523
242.03	2.553
242.66	2.566
243.29	2.56
243.92	2.519
244.56	2.472
245.2	2.43
245.84	2.387
246.49	2.349
247.14	2.317
247.79	2.283
248.45	2.268
249.11	2.259
249.77	2.253
250.44	2.249
251.11	2.247
251.79	2.249
252.46	2.257
253.15	2.276
253.83	2.289
254.52	2.308
255.21	2.33
255.91	2.351
256.61	2.349
257.32	2.287
258.03	2.225
258.74	2.149
259.45	2.083
260.18	1.997
260.9	1.936
261.63	1.863
262.36	1.802
263.1	1.723
263.84	1.665
264.58	1.61
265.33	1.561
266.09	1.523
266.84	1.482
267.61	1.442
268.37	1.412
269.14	1.388
269.92	1.367
270.7	1.344
271.48	1.318
272.27	1.297
273.07	1.273
273.86	1.25
274.67	1.229
275.47	1.21
276.29	1.195
277.1	1.184
277.93	1.167
278.75	1.154
279.58	1.141
280.42	1.114
281.26	1.08
282.11	1.048
