Uv/Vis Spectrum: Benzil phenylhydrazone
Formula: C20H16N2O
CAS: 6630-86-0
Melting point: 133-135
Instrument: n.i.g.
Origin: INSTITUTE OF ENERGY PROBLEMS OF CHEMICAL PHYSICS, RAS
Wavelength (nm)	Logarithm epsilon
228.3	4.055
228.67	4.057
229.04	4.061
229.34	4.064
229.66	4.068
230.23	4.079
231.7	4.129
233.41	4.168
235.11	4.208
236.82	4.233
238.52	4.254
240.23	4.273
241.93	4.29
243.64	4.296
245.34	4.296
247.05	4.285
248.75	4.268
250.45	4.247
252.16	4.226
253.86	4.206
255.57	4.182
257.27	4.159
258.98	4.138
260.68	4.115
262.39	4.096
264.09	4.07
265.8	4.046
267.5	4.021
269.2	3.997
270.91	3.972
272.61	3.945
274.32	3.923
276.02	3.901
277.73	3.877
279.43	3.852
281.14	3.834
282.84	3.811
284.55	3.792
286.25	3.772
287.95	3.756
289.66	3.734
291.36	3.723
293.07	3.705
294.77	3.693
296.48	3.68
298.18	3.667
299.86	3.658
301.59	3.654
303.37	3.655
305	3.661
306.7	3.674
308.41	3.693
310.11	3.711
311.82	3.734
313.52	3.762
315.23	3.802
316.93	3.839
318.64	3.873
320.34	3.905
322.05	3.934
323.75	3.962
325.45	3.984
327.16	4.009
328.86	4.03
330.57	4.052
332.27	4.07
333.98	4.088
335.68	4.108
337.39	4.126
339.09	4.142
340.8	4.155
342.5	4.17
344.2	4.184
345.91	4.198
347.61	4.211
349.32	4.224
351.02	4.235
352.73	4.246
354.43	4.254
356.14	4.263
357.84	4.266
359.55	4.269
361.25	4.269
362.95	4.269
364.66	4.266
366.36	4.263
368.07	4.258
369.77	4.251
371.48	4.244
373.18	4.233
374.89	4.221
376.59	4.206
378.3	4.19
380	4.166
381.7	4.142
383.41	4.117
386.82	4.065
388.52	4.035
390.23	4.006
391.93	3.978
393.64	3.945
395.34	3.912
397.05	3.881
398.75	3.852
400.45	3.816
402.16	3.782
403.86	3.751
405.57	3.711
407.99	3.658
410.68	3.596
412.28	3.561
414.09	3.52
415.8	3.481
417.85	3.443
421.25	3.378
425.68	3.294
