Uv/Vis Spectrum: 5-phenyl-1H-indole
Formula: C14H11N
CAS: 66616-72-6
Melting point: 69-70
Instrument: Specord UV-Vis
Origin: INSTITUTE OF ENERGY PROBLEMS OF CHEMICAL PHYSICS, RAS
Wavelength (nm)	Logarithm epsilon
208.008	4.388
208.053	4.388
208.553	4.391
209.053	4.394
209.553	4.397
210.019	4.4
210.519	4.4
211.019	4.401
211.519	4.402
212.019	4.401
212.519	4.398
213.019	4.394
213.519	4.387
214.019	4.377
214.519	4.364
215.019	4.349
215.519	4.331
216.019	4.31
216.519	4.289
217.019	4.267
217.519	4.246
218.019	4.227
218.519	4.212
218.829	4.204
219.329	4.193
219.829	4.183
220.329	4.175
220.829	4.169
221.329	4.164
221.829	4.161
222.329	4.158
222.829	4.156
223.329	4.155
223.829	4.155
224.329	4.155
224.829	4.156
225.329	4.157
225.829	4.159
226.329	4.161
226.829	4.163
227.329	4.166
227.829	4.169
228.329	4.172
228.829	4.176
229.329	4.179
229.829	4.184
230.329	4.188
230.829	4.193
231.329	4.199
231.829	4.205
232.329	4.211
232.829	4.218
233.329	4.226
233.829	4.234
234.329	4.243
234.829	4.252
235.329	4.262
235.829	4.273
236.329	4.285
236.829	4.297
236.869	4.293
237.369	4.31
237.869	4.326
238.369	4.342
238.869	4.356
239.369	4.37
239.869	4.383
240.369	4.396
240.869	4.409
241.369	4.421
241.869	4.432
242.369	4.444
242.869	4.455
243.369	4.465
243.869	4.475
244.369	4.485
244.869	4.494
245.369	4.503
245.869	4.511
246.369	4.518
246.869	4.525
247.369	4.53
247.869	4.535
248.369	4.54
248.869	4.543
249.369	4.545
249.869	4.547
250.369	4.547
250.869	4.546
251.369	4.544
251.869	4.542
252.369	4.538
252.869	4.533
253.369	4.527
253.869	4.52
254.369	4.512
254.869	4.503
255.369	4.494
255.869	4.483
256.369	4.472
256.869	4.46
257.369	4.447
257.869	4.434
258.369	4.421
258.869	4.407
259.369	4.392
259.869	4.378
260.369	4.363
260.869	4.349
261.369	4.334
261.869	4.32
262.369	4.305
262.869	4.291
263.369	4.277
263.417	4.275
263.917	4.261
264.417	4.248
264.917	4.234
265.417	4.222
265.917	4.21
266.417	4.198
266.917	4.186
267.417	4.175
267.917	4.165
268.417	4.155
268.917	4.145
269.417	4.135
269.917	4.127
270.417	4.118
270.917	4.11
271.417	4.102
271.917	4.095
272.417	4.087
272.917	4.081
273.417	4.074
273.917	4.068
274.417	4.062
274.917	4.056
275.417	4.051
275.917	4.045
276.417	4.04
276.917	4.035
277.417	4.03
277.917	4.026
278.417	4.021
278.917	4.017
279.417	4.013
279.917	4.009
280.417	4.005
280.917	4.001
281.417	3.997
281.917	3.993
282.417	3.989
282.917	3.985
283.417	3.981
283.917	3.978
284.417	3.974
284.917	3.97
285.417	3.966
285.917	3.962
286.417	3.958
286.917	3.954
287.417	3.95
287.917	3.945
288.417	3.941
288.917	3.937
289.417	3.932
289.917	3.927
290.417	3.922
290.917	3.917
291.417	3.912
291.917	3.906
292.417	3.901
292.917	3.895
293.417	3.888
293.917	3.882
294.417	3.875
294.917	3.868
295.417	3.86
295.917	3.853
296.417	3.844
296.917	3.836
297.417	3.827
297.917	3.817
298.417	3.807
298.917	3.796
299.417	3.785
299.917	3.774
300.417	3.761
300.917	3.748
301.417	3.735
301.917	3.721
302.417	3.706
302.917	3.691
303.417	3.674
303.917	3.658
304.417	3.64
304.917	3.622
305.417	3.602
305.917	3.583
306.417	3.562
306.917	3.541
307.417	3.519
307.917	3.496
308.417	3.473
308.917	3.449
309.417	3.425
309.917	3.4
310.417	3.375
310.917	3.349
311.417	3.323
311.917	3.297
312.417	3.271
312.917	3.245
313.417	3.22
