Uv/Vis Spectrum: o-Phenanthroline
Formula: C12H8N2
CAS: 66-71-7
Instrument: Beckman DU
Origin: INSTITUTE OF ENERGY PROBLEMS OF CHEMICAL PHYSICS, RAS
Wavelength (nm)	Logarithm epsilon
214.21	4.431
215.56	4.441
217.08	4.451
218.44	4.468
219.79	4.482
221.31	4.482
222.84	4.472
223.85	4.451
225.03	4.431
225.88	4.407
226.73	4.383
227.74	4.359
228.59	4.335
229.43	4.308
230.11	4.281
230.95	4.254
231.63	4.226
232.14	4.199
232.81	4.172
233.32	4.144
233.83	4.117
234.51	4.09
235.01	4.063
235.69	4.035
236.2	4.008
236.71	3.981
237.21	3.954
237.72	3.926
238.57	3.902
239.07	3.875
240.09	3.851
240.93	3.824
241.95	3.8
243.3	3.783
244.82	3.783
246.18	3.8
247.19	3.824
247.87	3.851
248.71	3.879
249.56	3.906
250.24	3.933
251.08	3.96
251.93	3.988
252.61	4.015
253.45	4.039
254.3	4.066
255.14	4.093
255.99	4.121
257	4.144
257.85	4.172
258.69	4.199
259.71	4.223
260.56	4.25
261.57	4.274
262.25	4.301
263.26	4.325
264.11	4.352
265.12	4.376
265.97	4.4
266.98	4.421
268.17	4.441
269.52	4.455
270.87	4.468
272.4	4.472
273.92	4.468
275.44	4.458
276.62	4.438
277.81	4.421
278.82	4.397
279.67	4.369
280.51	4.342
281.02	4.315
281.53	4.288
282.04	4.257
282.38	4.226
282.88	4.199
283.39	4.172
283.9	4.144
284.41	4.114
284.91	4.087
285.42	4.059
285.93	4.032
286.6	4.005
287.28	3.977
287.79	3.95
288.63	3.926
289.31	3.899
290.16	3.875
291	3.851
292.19	3.834
293.54	3.821
294.89	3.807
296.41	3.807
297.94	3.804
299.46	3.797
300.98	3.79
302.5	3.79
303.86	3.776
305.38	3.77
306.73	3.756
308.09	3.742
309.44	3.725
310.62	3.705
311.81	3.688
312.99	3.667
314.18	3.647
315.19	3.626
316.21	3.606
317.39	3.585
318.57	3.565
319.59	3.545
320.77	3.528
321.79	3.504
322.97	3.483
323.99	3.463
325	3.439
326.02	3.418
327.03	3.395
328.21	3.374
329.06	3.35
330.08	3.33
331.09	3.309
332.11	3.289
333.12	3.268
333.97	3.245
334.98	3.224
336	3.204
337.18	3.183
338.03	3.159
339.04	3.136
340.06	3.115
341.07	3.091
341.92	3.067
342.93	3.047
343.78	3.023
344.62	2.999
345.64	2.975
346.82	2.955
348.01	2.934
349.19	2.917
350.37	2.897
351.56	2.88
352.74	2.859
353.76	2.839
354.77	2.819
355.79	2.795
356.63	2.771
357.14	2.744
357.82	2.716
358.66	2.689
359.17	2.662
359.68	2.634
360.01	2.604
360.69	2.577
361.03	2.546
361.54	2.519
362.04	2.491
362.38	2.461
362.89	2.433
363.4	2.403
363.91	2.372
364.24	2.341
364.75	2.314
365.26	2.283
365.6	2.253
365.94	2.222
366.44	2.195
366.78	2.164
367.29	2.137
367.63	2.106
367.96	2.075
368.47	2.045
368.81	2.014
369.15	1.983
369.83	1.956
370.33	1.926
370.84	1.898
371.35	1.871
372.02	1.844
372.53	1.816
373.21	1.789
373.89	1.762
374.39	1.731
375.07	1.704
375.75	1.677
376.42	1.649
377.27	1.622
377.94	1.595
378.96	1.574
