Uv/Vis Spectrum: 1-Naphthalenecarboxaldehyde
Formula: C11H8O
CAS: 66-77-3
Melting point: 33.5
Boiling point: 292
Instrument: n.i.g.
Origin: INSTITUTE OF ENERGY PROBLEMS OF CHEMICAL PHYSICS, RAS
Wavelength (nm)	Logarithm epsilon
375.923	1.57024
375.338	1.6173
374.841	1.65421
374.416	1.68465
374.044	1.71231
373.709	1.74087
373.395	1.77402
373.395	1.77402
373.003	1.79838
372.619	1.8198
372.193	1.84089
371.679	1.86424
371.03	1.89244
370.202	1.92808
369.149	1.97377
367.829	2.03209
366.202	2.10563
366.202	2.10563
365.048	2.14673
364.18	2.18856
363.45	2.23042
362.712	2.27161
361.823	2.31144
360.643	2.34919
360.643	2.34919
359.808	2.4022
358.865	2.44509
358.162	2.46573
358.162	2.46573
357.624	2.49862
357.075	2.53151
356.515	2.5644
355.945	2.59729
355.364	2.63017
354.774	2.66304
354.173	2.69591
353.564	2.72876
352.946	2.7616
352.32	2.79442
351.685	2.82723
351.042	2.86002
350.392	2.89279
349.735	2.92553
349.072	2.95826
348.401	2.99095
347.725	3.02362
347.042	3.05626
346.354	3.08886
345.661	3.12144
344.964	3.15397
344.261	3.18647
343.554	3.21894
342.843	3.25136
342.129	3.28373
341.411	3.31606
340.69	3.34835
339.966	3.38059
339.239	3.41277
338.51	3.44491
337.779	3.47699
337.047	3.50902
336.313	3.54099
335.577	3.57289
334.841	3.60474
334.104	3.63652
334.104	3.63652
333.046	3.67257
331.881	3.71036
330.524	3.74696
328.895	3.77944
326.917	3.80486
326.917	3.80486
325.013	3.80411
323.131	3.80314
321.27	3.80205
321.27	3.80205
319.358	3.82122
316.834	3.83943
314.113	3.85161
311.582	3.85264
309.608	3.83743
309.608	3.83743
307.138	3.82527
304.829	3.80503
302.609	3.78175
300.411	3.76044
298.17	3.74612
298.17	3.74612
296.198	3.71512
294.252	3.68398
292.332	3.65274
290.437	3.62146
290.437	3.62146
287.716	3.56256
286.448	3.53323
285.748	3.51952
285.748	3.51952
285.634	3.50822
285.452	3.50159
285.05	3.49394
285.05	3.49394
284.518	3.48496
283.416	3.46234
281.918	3.42996
280.196	3.39172
278.418	3.35154
276.74	3.31331
275.315	3.28093
274.288	3.2583
273.803	3.24933
273.803	3.24933
272.235	3.21044
270.979	3.17912
269.941	3.15327
269.03	3.13081
268.158	3.10967
267.24	3.08777
266.192	3.06303
264.934	3.03336
263.389	2.9967
263.389	2.9967
261.738	2.98995
260.658	3.00894
259.837	3.04597
259.837	3.04597
259.584	3.0807
259.306	3.11554
259.012	3.15046
258.709	3.18544
258.406	3.22045
258.111	3.25544
257.832	3.29039
257.575	3.32528
257.35	3.36006
257.164	3.39471
257.025	3.4292
257.025	3.4292
256.803	3.4484
256.428	3.49228
255.979	3.54851
255.532	3.60473
255.161	3.64861
254.942	3.66781
254.942	3.66781
254.875	3.67982
254.802	3.69183
254.721	3.70384
254.267	3.71932
254.053	3.75614
253.792	3.79278
253.493	3.82926
253.165	3.86561
252.819	3.90185
252.463	3.93802
252.108	3.97414
251.762	4.01023
251.435	4.04634
251.136	4.08248
251.136	4.08248
250.778	4.09447
250.417	4.10645
250.047	4.11843
250.047	4.11843
249.726	4.15419
249.151	4.18669
248.628	4.21942
248.628	4.21942
247.566	4.23379
246.112	4.24526
244.429	4.25309
242.673	4.2566
240.993	4.25505
239.529	4.24775
238.415	4.23397
238.415	4.23397
236.951	4.22514
235.65	4.21649
234.469	4.20955
233.364	4.20586
232.294	4.20693
231.219	4.21429
230.101	4.22948
228.903	4.25401
228.903	4.25401
227.797	4.26367
226.658	4.28209
225.545	4.30664
224.513	4.33466
223.616	4.3635
222.908	4.39051
222.908	4.39051
222.229	4.39579
221.546	4.40085
220.864	4.4058
220.864	4.4058
220.053	4.4262
219.056	4.44876
217.959	4.47272
216.845	4.49731
215.794	4.52176
214.882	4.54532
214.185	4.56721
213.775	4.58667
213.775	4.58667
212.577	4.61141
211.657	4.62676
210.907	4.63273
210.224	4.62932
209.506	4.61653
208.655	4.59437
207.577	4.56285
207.577	4.56285
207.183	4.54294
206.677	4.52502
205.965	4.51308
