Uv/Vis Spectrum: 2-[2-(pyridinyl)ethenyl]pyrazine
Formula: C11H9N3
CAS: 66806-43-7
Melting point: 111
Instrument: Zeiss PMQ II
Origin: INSTITUTE OF ENERGY PROBLEMS OF CHEMICAL PHYSICS, RAS
Wavelength (nm)	Logarithm epsilon
183.562	4.303
184.562	4.308
185.562	4.312
186.562	4.316
187.562	4.318
188.562	4.318
189.562	4.313
190.562	4.299
191.562	4.274
192.562	4.238
193.562	4.191
194.562	4.135
195.562	4.076
196.562	4.023
198.473	3.954
199.919	3.905
201.386	3.869
202.641	3.838
203.628	3.825
204.715	3.825
205.802	3.825
206.889	3.825
207.98	3.831
208.98	3.83
209.98	3.832
210.98	3.836
211.98	3.84
212.98	3.846
213.98	3.851
214.98	3.855
215.98	3.858
216.98	3.859
217.98	3.858
218.98	3.855
219.98	3.849
221.121	3.826
222.695	3.802
223.695	3.78
224.695	3.762
225.695	3.744
226.695	3.722
227.695	3.695
228.289	3.668
229.589	3.631
230.889	3.558
232.189	3.502
233.489	3.489
234.883	3.514
236.604	3.56
237.904	3.602
239.204	3.648
240.504	3.697
241.804	3.747
243.104	3.797
244.404	3.846
245.704	3.893
247.004	3.938
248.304	3.98
249.604	4.018
250.904	4.053
252.204	4.084
253.504	4.111
254.804	4.134
256.104	4.153
257.404	4.169
258.704	4.18
260.004	4.188
261.304	4.192
262.604	4.193
263.904	4.19
265.204	4.183
266.504	4.172
267.804	4.157
269.289	4.131
271.315	4.087
272.615	4.061
273.915	4.038
275.215	4.019
276.515	4.003
277.815	3.991
279.115	3.982
280.415	3.976
281.715	3.973
283.015	3.974
284.315	3.977
285.615	3.983
286.915	3.992
288.215	4.003
289.515	4.016
290.815	4.032
292.115	4.049
293.415	4.068
294.715	4.088
296.015	4.11
297.179	4.128
298.479	4.154
299.779	4.178
301.079	4.201
302.379	4.224
303.679	4.244
304.979	4.264
306.279	4.282
307.579	4.299
308.879	4.314
310.179	4.329
311.479	4.341
312.779	4.352
314.079	4.361
315.379	4.369
316.679	4.375
317.979	4.379
319.279	4.381
320.579	4.381
321.879	4.379
323.179	4.375
324.479	4.368
325.779	4.359
327.079	4.347
328.379	4.332
329.679	4.315
329.785	4.313
331.085	4.291
332.385	4.268
333.685	4.246
334.985	4.226
336.285	4.209
337.585	4.194
338.885	4.18
340.185	4.166
341.485	4.147
342.785	4.121
344.085	4.081
345.385	4.024
346.685	3.941
347.848	3.857
349.148	3.66
350.448	3.491
351.748	3.341
353.048	3.201
354.348	3.067
355.648	2.932
356.948	2.796
358.248	2.656
359.548	2.514
360.848	2.372
361.995	2.252
363.295	2.127
364.595	2.003
365.895	1.878
367.195	1.753
368.495	1.629
369.795	1.504
371.095	1.379
