Uv/Vis Spectrum: 3-[2-(pyridinyl)ethenyl]pyridazine
Formula: C11H9N3
CAS: 66806-52-8
Melting point: 118
Instrument: Zeiss PMQ II
Origin: INSTITUTE OF ENERGY PROBLEMS OF CHEMICAL PHYSICS, RAS
Wavelength (nm)	Logarithm epsilon
183.048	4.26
184.248	4.266
185.448	4.275
186.648	4.285
187.848	4.296
189.048	4.308
190.248	4.32
191.448	4.33
192.648	4.339
193.848	4.346
195.048	4.349
196.248	4.348
197.448	4.342
198.648	4.33
198.823	4.328
200.023	4.312
201.223	4.285
202.423	4.25
203.623	4.209
204.823	4.165
206.023	4.119
207.223	4.073
208.423	4.03
209.623	3.989
210.823	3.954
212.023	3.924
213.223	3.899
214.423	3.882
215.623	3.871
216.823	3.868
218.082	3.871
219.282	3.874
220.482	3.874
221.682	3.868
222.882	3.855
224.082	3.834
225.282	3.804
225.97	3.782
227.17	3.747
228.37	3.714
229.57	3.68
230.77	3.637
231.97	3.581
233.123	3.539
234.323	3.485
235.523	3.443
236.723	3.417
237.923	3.406
239.123	3.412
240.323	3.431
241.523	3.46
242.723	3.494
243.762	3.52
244.962	3.55
246.162	3.581
247.362	3.612
248.562	3.643
249.762	3.675
250.962	3.707
252.162	3.738
253.362	3.769
254.562	3.8
255.762	3.829
256.962	3.858
258.162	3.886
259.362	3.914
260.562	3.94
261.762	3.965
262.962	3.989
264.162	4.012
265.362	4.034
266.562	4.055
267.762	4.075
268.962	4.094
270.162	4.111
271.362	4.128
272.562	4.143
273.762	4.157
274.962	4.17
276.162	4.182
277.362	4.193
278.562	4.203
279.762	4.211
280.962	4.219
282.162	4.225
283.362	4.23
284.562	4.233
285.762	4.236
286.962	4.237
288.162	4.236
289.362	4.235
290.562	4.232
291.762	4.227
292.962	4.221
294.162	4.214
295.362	4.205
296.562	4.195
297.762	4.182
298.962	4.169
300.162	4.154
301.362	4.137
302.562	4.118
303.762	4.098
304.962	4.076
306.162	4.053
307.362	4.029
308.562	4.003
309.762	3.975
310.962	3.947
312.162	3.918
313.362	3.887
314.562	3.857
315.762	3.826
316.962	3.794
318.162	3.763
