Uv/Vis Spectrum: (2,4-dihydroxyphenyl)(4-ethylphenyl)methanone
Formula: C15H14O3
CAS: 66802-91-3
Melting point: 111-113
Instrument: Beckman M VI
Origin: INSTITUTE OF ENERGY PROBLEMS OF CHEMICAL PHYSICS, RAS
Wavelength (nm)	Logarithm epsilon
221.247	4.121
221.284	4.121
221.784	4.101
222.284	4.087
222.784	4.076
223.284	4.066
223.784	4.056
224.284	4.043
224.784	4.027
225.284	4.009
225.784	3.988
226.284	3.967
226.784	3.946
227.284	3.929
227.784	3.917
228.274	3.91
228.774	3.905
229.274	3.903
229.774	3.902
230.274	3.901
230.774	3.901
231.26	3.901
231.76	3.9
232.26	3.901
232.76	3.901
233.26	3.903
233.76	3.904
234.26	3.907
234.76	3.909
235.26	3.912
235.76	3.915
236.26	3.919
236.76	3.922
237.26	3.926
237.76	3.93
238.26	3.934
238.76	3.938
239.26	3.943
239.76	3.947
239.944	3.95
240.444	3.952
240.944	3.957
241.444	3.962
241.944	3.966
242.444	3.971
242.944	3.974
243.444	3.976
243.944	3.977
244.444	3.977
244.944	3.976
245.444	3.975
245.944	3.972
246.444	3.97
246.944	3.967
247.444	3.963
247.944	3.96
248.444	3.957
248.944	3.955
249.444	3.952
249.944	3.95
250.444	3.949
250.944	3.948
251.444	3.947
251.944	3.946
252.444	3.946
252.944	3.946
253.444	3.946
253.944	3.946
254.444	3.946
254.944	3.946
255.444	3.946
255.944	3.946
256.444	3.946
256.944	3.946
257.444	3.945
257.944	3.945
258.444	3.944
258.944	3.943
259.444	3.943
259.944	3.942
260.444	3.942
260.944	3.942
261.444	3.941
261.944	3.942
262.444	3.942
262.944	3.943
263.444	3.943
263.944	3.945
264.444	3.946
264.944	3.947
265.444	3.949
265.944	3.951
266.444	3.952
266.944	3.954
267.444	3.956
267.944	3.958
268.095	3.958
268.595	3.96
269.095	3.962
269.595	3.964
270.095	3.966
270.595	3.969
271.095	3.972
271.595	3.975
272.095	3.979
272.595	3.984
273.095	3.989
273.595	3.995
274.095	4.001
274.595	4.007
275.095	4.014
275.595	4.021
276.095	4.028
276.595	4.035
277.095	4.042
277.595	4.049
278.095	4.056
278.595	4.063
279.095	4.07
279.595	4.078
279.99	4.084
280.49	4.091
280.99	4.097
281.49	4.103
281.99	4.109
282.49	4.114
282.99	4.119
283.49	4.123
283.99	4.127
284.49	4.131
284.99	4.134
285.49	4.136
285.99	4.138
286.49	4.14
286.99	4.141
287.49	4.141
287.99	4.142
288.49	4.141
288.99	4.141
289.49	4.14
289.99	4.138
290.49	4.136
290.99	4.134
291.49	4.132
291.99	4.129
292.49	4.127
292.99	4.124
293.49	4.12
293.99	4.117
294.49	4.114
294.99	4.11
295.49	4.107
295.99	4.103
296.49	4.099
296.99	4.096
297.49	4.092
297.99	4.088
298.49	4.085
298.99	4.082
299.49	4.078
299.99	4.075
300.49	4.072
300.99	4.069
301.49	4.066
301.99	4.064
302.49	4.061
302.99	4.059
303.49	4.057
303.99	4.055
304.49	4.053
304.99	4.052
305.49	4.05
305.99	4.049
306.49	4.048
306.99	4.047
307.49	4.046
307.99	4.046
308.49	4.045
308.99	4.045
309.49	4.045
309.99	4.045
310.49	4.045
310.99	4.045
311.49	4.046
311.99	4.047
312.49	4.048
312.99	4.049
313.49	4.05
313.99	4.052
314.49	4.054
314.99	4.056
315.49	4.059
315.99	4.062
316.118	4.063
316.618	4.064
317.118	4.066
317.618	4.068
318.118	4.07
318.618	4.072
319.118	4.075
319.618	4.077
320.118	4.079
320.618	4.081
321.118	4.083
321.618	4.085
322.118	4.086
322.618	4.088
323.118	4.089
323.618	4.091
324.118	4.092
324.618	4.093
325.118	4.093
325.618	4.094
326.118	4.094
326.618	4.095
327.118	4.095
327.618	4.095
328.118	4.094
328.618	4.094
329.118	4.093
329.618	4.093
330.118	4.092
330.618	4.091
331.118	4.09
331.618	4.088
332.118	4.087
332.618	4.085
333.118	4.083
333.618	4.081
334.118	4.079
334.618	4.077
335.118	4.074
335.618	4.072
336.118	4.069
336.618	4.066
337.118	4.062
337.618	4.059
338.118	4.055
338.618	4.051
339.118	4.047
339.618	4.043
340.118	4.038
340.618	4.033
341.118	4.028
341.618	4.023
342.118	4.018
342.618	4.012
343.118	4.006
343.618	4
344.118	3.994
344.618	3.987
345.118	3.98
345.618	3.973
346.118	3.966
346.618	3.959
347.118	3.951
347.618	3.943
348.118	3.935
348.618	3.927
349.118	3.919
349.618	3.91
350.118	3.901
350.618	3.893
351.118	3.884
351.618	3.874
352.118	3.865
352.618	3.856
353.118	3.846
353.618	3.836
354.118	3.826
354.618	3.816
355.118	3.806
355.618	3.795
356.118	3.784
356.618	3.774
357.118	3.763
357.618	3.751
358.118	3.74
358.618	3.728
359.118	3.716
359.618	3.704
360.118	3.691
360.618	3.679
361.118	3.665
361.618	3.652
362.118	3.638
362.618	3.624
363.118	3.61
363.618	3.595
364.118	3.58
364.618	3.565
365.118	3.549
365.618	3.533
366.118	3.516
366.618	3.5
367.118	3.483
367.618	3.465
368.118	3.448
368.618	3.43
369.118	3.412
369.618	3.394
370.118	3.376
370.618	3.358
371.118	3.34
371.618	3.321
372.118	3.303
372.618	3.285
373.118	3.268
373.618	3.25
374.118	3.233
374.618	3.216
375.118	3.199
375.618	3.183
376.118	3.167
376.618	3.151
377.118	3.136
377.618	3.121
378.118	3.107
378.618	3.092
379.118	3.078
379.618	3.064
