Uv/Vis Spectrum: 1H-Indene, 2,3-dihydro-4,7-dimethyl-
Formula: C11H14
CAS: 6682-71-9
Boiling point: 94-97/ 10 mm
Instrument: unknown
Origin: INSTITUTE OF ENERGY PROBLEMS OF CHEMICAL PHYSICS, RAS
Wavelength (nm)	Logarithm epsilon
232.7	2.538
232.74	2.537
232.79	2.535
232.83	2.534
232.96	2.51
233.21	2.461
233.47	2.405
233.73	2.358
233.99	2.317
234.24	2.268
234.5	2.237
234.76	2.206
235.01	2.175
235.27	2.143
235.53	2.117
235.79	2.093
236.04	2.069
236.3	2.05
236.56	2.03
236.81	2.006
237.07	1.987
237.33	1.971
237.52	1.958
237.75	1.943
237.98	1.931
238.26	1.917
238.61	1.906
238.82	1.902
239.1	1.898
239.33	1.895
239.64	1.892
239.87	1.892
240.16	1.891
240.41	1.891
240.67	1.892
240.94	1.894
241.19	1.896
241.44	1.901
241.7	1.903
241.96	1.907
242.21	1.912
242.47	1.918
242.73	1.923
242.98	1.93
243.24	1.938
243.5	1.948
243.76	1.955
244.01	1.964
244.28	1.972
244.53	1.98
244.79	1.987
245.04	1.996
245.3	2.004
245.56	2.012
245.81	2.017
246.07	2.026
246.33	2.033
246.58	2.04
246.84	2.046
247.1	2.054
247.36	2.06
247.61	2.066
247.87	2.071
248.13	2.077
248.38	2.081
248.64	2.087
248.9	2.093
249.16	2.097
249.41	2.103
249.67	2.109
249.93	2.114
250.18	2.12
250.45	2.127
250.7	2.135
250.96	2.142
251.21	2.15
251.47	2.158
251.73	2.166
251.98	2.175
252.24	2.184
252.51	2.194
252.76	2.202
253.01	2.211
253.27	2.219
253.53	2.227
253.78	2.235
254.02	2.242
254.3	2.25
254.56	2.256
254.81	2.261
255.07	2.267
255.33	2.272
255.58	2.277
255.84	2.28
256.1	2.283
256.36	2.287
256.61	2.289
256.87	2.292
257.13	2.296
257.38	2.299
257.64	2.302
257.9	2.304
258.16	2.307
258.41	2.309
258.67	2.312
258.93	2.315
259.18	2.319
259.44	2.321
259.7	2.325
259.96	2.33
260.21	2.334
260.47	2.336
260.73	2.341
260.98	2.346
261.24	2.351
261.5	2.354
261.76	2.358
262.01	2.363
262.27	2.367
262.53	2.373
262.78	2.38
263.04	2.386
263.3	2.392
263.53	2.397
263.81	2.402
264.07	2.406
264.33	2.408
264.58	2.412
264.84	2.414
265.1	2.414
265.36	2.413
265.61	2.411
265.87	2.407
266.13	2.405
266.38	2.402
266.64	2.398
266.9	2.395
267.16	2.391
267.41	2.386
267.67	2.382
267.93	2.376
268.18	2.372
268.44	2.369
268.7	2.364
268.96	2.359
269.21	2.354
269.47	2.349
269.73	2.343
269.98	2.338
270.24	2.336
270.5	2.335
270.76	2.335
271.01	2.335
271.27	2.337
271.53	2.339
271.78	2.339
272.04	2.336
272.3	2.328
272.56	2.318
272.81	2.302
273.07	2.285
273.33	2.269
273.58	2.253
273.84	2.239
274.1	2.221
274.36	2.207
274.61	2.191
274.87	2.174
275.13	2.154
275.38	2.138
275.64	2.122
275.9	2.106
276.15	2.088
276.41	2.072
276.67	2.055
276.93	2.038
277.18	2.022
277.44	2
277.7	1.981
277.95	1.962
278.21	1.94
278.47	1.916
278.73	1.894
278.98	1.868
279.24	1.841
279.5	1.811
279.75	1.779
280.01	1.751
280.27	1.703
280.53	1.667
280.78	1.631
281.04	1.597
281.3	1.547
281.55	1.502
281.56	1.497
