Uv/Vis Spectrum: 4-[2-(3-pyridinyl)ethenyl]pyrimidine
Formula: C11H9N3
CAS: 66806-45-9
Melting point: 74
Instrument: Zeiss PMQ II
Origin: INSTITUTE OF ENERGY PROBLEMS OF CHEMICAL PHYSICS, RAS
Wavelength (nm)	Logarithm epsilon
184.201	4.191
185.383	4.191
186.669	4.192
187.869	4.191
189.069	4.182
190.269	4.167
191.516	4.145
192.716	4.11
193.916	4.078
195.116	4.048
196.316	4.021
197.516	3.996
198.716	3.975
199.916	3.957
201.116	3.941
202.316	3.928
203.516	3.917
204.716	3.909
205.916	3.903
207.116	3.9
208.316	3.898
209.516	3.898
210.716	3.901
211.717	3.903
212.917	3.913
214.117	3.926
215.317	3.936
216.517	3.944
217.717	3.946
218.917	3.943
220.117	3.934
221.317	3.919
222.517	3.898
223.717	3.871
224.917	3.839
226.117	3.803
227.317	3.763
228.517	3.718
228.921	3.7
230.121	3.648
231.321	3.602
232.521	3.563
233.721	3.531
234.921	3.508
236.121	3.493
237.321	3.486
238.521	3.486
239.721	3.492
240.921	3.504
242.121	3.521
243.321	3.541
244.521	3.563
245.721	3.587
246.921	3.611
248.121	3.635
249.321	3.659
250.521	3.683
250.663	3.685
251.863	3.71
253.063	3.734
254.263	3.758
255.463	3.78
256.663	3.802
257.863	3.822
259.063	3.842
260.263	3.861
261.463	3.879
262.663	3.896
263.863	3.913
265.063	3.929
266.263	3.945
267.463	3.96
268.663	3.974
269.863	3.989
271.063	4.003
272.263	4.017
273.463	4.031
274.663	4.045
275.863	4.059
277.063	4.074
278.263	4.088
279.463	4.102
280.663	4.117
281.863	4.132
283.063	4.147
284.263	4.162
285.463	4.178
286.663	4.193
287.863	4.208
289.063	4.224
290.263	4.239
291.463	4.254
292.663	4.269
293.863	4.283
295.063	4.297
296.263	4.31
297.463	4.322
298.663	4.333
299.863	4.343
301.063	4.352
302.263	4.359
303.463	4.365
304.663	4.369
305.863	4.371
307.063	4.371
308.263	4.369
309.463	4.365
310.663	4.359
311.863	4.35
313.063	4.338
314.263	4.324
315.463	4.308
316.663	4.289
317.863	4.267
319.063	4.243
320.263	4.217
321.463	4.188
322.663	4.158
323.368	4.139
324.568	4.102
325.768	4.059
326.968	4.01
328.168	3.956
329.368	3.896
330.568	3.831
331.768	3.762
332.968	3.689
334.168	3.613
335.368	3.533
336.568	3.451
337.768	3.367
338.968	3.282
340.168	3.195
341.368	3.107
342.568	3.019
343.768	2.93
344.968	2.843
346.168	2.756
347.368	2.671
348.568	2.588
349.768	2.507
350.968	2.428
352.221	2.345
353.221	2.292
354.221	2.239
355.221	2.186
356.221	2.133
357.221	2.08
358.221	2.027
359.221	1.973
360.221	1.92
361.221	1.867
362.221	1.814
363.221	1.761
364.221	1.708
365.221	1.655
366.221	1.602
367.221	1.549
368.221	1.496
369.221	1.443
370.221	1.39
371.221	1.336
372.221	1.283
373.221	1.23
374.221	1.177
375.221	1.124
376.221	1.071
