Uv/Vis Spectrum: 2-Naphthaldehyde
Formula: C11H8O
CAS: 66-99-9
Melting point: 208.5
Instrument: Uvispec spectrophotometer
Origin: INSTITUTE OF ENERGY PROBLEMS OF CHEMICAL PHYSICS, RAS
Wavelength (nm)	Logarithm epsilon
374.204	1.56403
372.084	1.63213
371.523	1.70194
371.099	1.75326
370.776	1.78989
370.518	1.81567
370.291	1.83441
370.057	1.84993
369.781	1.86606
369.276	1.89216
369.028	1.95784
368.831	2.0026
368.617	2.03743
368.32	2.07333
367.871	2.12129
367.871	2.12129
367.202	2.15766
366.393	2.22055
365.729	2.25692
365.729	2.25692
364.869	2.32309
364.09	2.3824
363.384	2.43548
362.743	2.483
362.16	2.52558
361.626	2.56388
361.134	2.59854
360.677	2.6302
360.246	2.65951
359.835	2.68711
359.436	2.71364
359.043	2.73975
358.647	2.76609
358.242	2.7933
357.822	2.82202
357.378	2.85289
356.904	2.88657
356.904	2.88657
356.302	2.90804
355.592	2.94326
354.995	2.96474
354.995	2.96474
353.81	3.02961
353.028	3.07118
352.503	3.10498
352.092	3.14652
352.092	3.14652
351.29	3.16016
349.958	3.18923
347.719	3.23204
347.719	3.23204
345.561	3.24439
344.172	3.25001
342.357	3.2537
339.949	3.26358
336.264	3.24683
332.546	3.22824
328.844	3.2158
328.844	3.2158
327.107	3.19626
325.215	3.17242
324.016	3.14364
324.016	3.14364
322.472	3.1225
321.473	3.11198
320.161	3.10302
320.161	3.10302
320.126	3.09696
320.076	3.09089
320.019	3.08482
320.019	3.08482
318.771	3.07859
317.304	3.06701
315.375	3.05953
314.846	3.06187
314.34	3.06458
313.822	3.06705
313.299	3.06941
313.299	3.06941
311.824	3.1056
310.723	3.13403
309.648	3.16424
308.264	3.20576
306.247	3.26813
306.247	3.26813
305.654	3.30768
304.685	3.34598
303.465	3.3834
302.118	3.42031
300.765	3.45706
299.522	3.49401
298.502	3.53153
298.502	3.53153
298.336	3.56048
298.068	3.595
297.699	3.63361
297.23	3.67484
296.662	3.71721
295.996	3.75925
295.235	3.7995
294.38	3.83647
293.433	3.86869
292.396	3.8947
291.272	3.91301
291.272	3.91301
289.68	3.9127
288.353	3.91013
286.414	3.90798
286.414	3.90798
285.173	3.92663
283.944	3.94528
282.725	3.96392
282.725	3.96392
282.041	3.9621
281.359	3.96016
280.682	3.95799
280.682	3.95799
279.096	3.92855
277.529	3.89911
275.979	3.86967
274.446	3.84023
272.93	3.81079
272.93	3.81079
272.512	3.80906
272.091	3.80722
271.659	3.80515
271.659	3.80515
270.671	3.77999
269.552	3.75041
268.319	3.7192
266.986	3.68912
265.568	3.66294
264.078	3.64341
262.532	3.63332
262.532	3.63332
261.397	3.65349
260.729	3.66683
260.252	3.67152
260.252	3.67152
260.053	3.68615
259.523	3.71597
258.739	3.76373
257.781	3.83216
257.781	3.83216
257.666	3.83662
257.546	3.84097
257.417	3.84508
257.417	3.84508
257.246	3.88347
257.071	3.92184
256.89	3.96018
256.702	3.99849
256.507	4.03674
256.303	4.07492
256.089	4.11303
255.863	4.15104
255.626	4.18896
255.375	4.22675
255.109	4.26442
254.828	4.30194
254.53	4.33931
254.215	4.37652
254.215	4.37652
253.667	4.41701
253.081	4.45873
252.431	4.50016
251.691	4.53974
250.837	4.57594
249.292	4.61141
249.163	4.61134
249.024	4.61126
248.881	4.61118
248.546	4.61907
248.546	4.61907
248.525	4.613
248.495	4.60694
248.46	4.60086
246.979	4.61017
245.653	4.59147
244.306	4.57199
242.684	4.56076
242.684	4.56076
241.952	4.5498
241.235	4.54153
240.802	4.52032
240.802	4.52032
240.194	4.50785
239.58	4.49538
238.965	4.48291
238.965	4.48291
238.275	4.46101
237.441	4.43443
236.488	4.40459
235.446	4.37295
234.339	4.34095
233.195	4.31003
232.038	4.28163
230.892	4.25721
229.78	4.23819
228.724	4.22602
227.745	4.22215
227.745	4.22215
226.996	4.23677
226.25	4.25127
225.5	4.26554
225.5	4.26554
224.043	4.26387
222.331	4.24911
221.071	4.22568
221.071	4.22568
219.946	4.21337
218.726	4.20438
217.442	4.19813
216.127	4.19402
214.81	4.19145
213.522	4.18985
212.289	4.1886
211.139	4.18712
