Uv/Vis Spectrum: 2,4-diamino-1,5-dihydro-6,7-pteridinedione
Formula: C6H6N6O2
CAS: 67074-69-5
Melting point: > 350 (hydrochloride)
Instrument: Cary 15
Origin: INSTITUTE OF ENERGY PROBLEMS OF CHEMICAL PHYSICS, RAS
Wavelength (nm)	Logarithm epsilon
221.839	4.237
222.075	4.238
223.075	4.244
224.075	4.25
225.075	4.255
226.075	4.261
227.075	4.266
228.075	4.27
229.075	4.272
230.075	4.273
231.075	4.273
232.075	4.271
233.075	4.267
234.075	4.261
235.075	4.254
236.075	4.245
237.075	4.235
238.075	4.223
239.075	4.21
240.075	4.196
241.075	4.182
242.075	4.167
243.339	4.148
244.339	4.127
245.339	4.107
246.339	4.086
247.339	4.063
248.339	4.04
249.339	4.016
250.339	3.99
251.339	3.963
252.339	3.934
253.339	3.906
254.339	3.877
255.339	3.847
256.339	3.819
257.339	3.791
258.339	3.765
259.339	3.741
260.339	3.719
261.339	3.7
262.339	3.685
263.339	3.673
264.339	3.665
265.339	3.662
266.339	3.663
267.339	3.669
268.259	3.677
269.259	3.691
270.259	3.706
271.259	3.721
272.259	3.737
273.259	3.752
274.259	3.766
275.259	3.78
276.259	3.792
277.259	3.804
278.259	3.814
279.259	3.823
280.259	3.831
281.259	3.838
282.259	3.845
283.259	3.851
284.259	3.857
285.259	3.862
286.259	3.866
287.259	3.87
288.259	3.874
289.259	3.876
290.259	3.877
291.259	3.877
292.259	3.874
293.259	3.867
294.259	3.857
294.415	3.856
295.415	3.838
296.415	3.82
297.415	3.803
298.415	3.787
299.415	3.773
300.415	3.76
301.415	3.75
302.415	3.741
303.415	3.735
304.415	3.732
305.415	3.73
306.415	3.731
307.415	3.734
308.415	3.739
309.415	3.746
310.415	3.755
311.415	3.764
312.415	3.774
313.415	3.785
313.501	3.782
314.501	3.794
315.501	3.805
316.501	3.817
317.501	3.828
318.501	3.838
319.501	3.849
320.501	3.859
321.501	3.869
322.501	3.878
323.501	3.887
324.501	3.896
325.501	3.904
326.501	3.912
327.501	3.92
328.501	3.927
329.501	3.934
330.501	3.94
331.501	3.946
332.501	3.951
333.501	3.956
334.501	3.96
335.501	3.963
336.501	3.967
337.501	3.969
338.501	3.971
339.501	3.973
340.501	3.973
341.501	3.974
342.501	3.973
343.501	3.972
344.501	3.971
345.501	3.968
346.501	3.966
347.501	3.962
348.501	3.958
349.501	3.953
350.501	3.948
351.501	3.942
352.501	3.936
353.501	3.929
354.501	3.921
355.501	3.913
356.501	3.904
357.501	3.895
358.501	3.885
359.501	3.874
360.501	3.864
361.501	3.852
362.501	3.841
363.501	3.828
364.501	3.816
365.501	3.803
365.576	3.802
366.576	3.789
367.576	3.777
368.576	3.765
369.576	3.753
370.576	3.741
371.576	3.727
372.576	3.713
373.576	3.696
374.576	3.679
375.576	3.66
376.576	3.641
377.576	3.622
378.576	3.602
379.576	3.584
380.576	3.568
381.326	3.556
382.402	3.542
383.364	3.531
384.364	3.522
385.364	3.515
386.364	3.507
387.364	3.499
388.364	3.487
389.364	3.472
390.364	3.452
391.364	3.428
392.364	3.399
393.364	3.366
394.364	3.329
395.364	3.29
396.364	3.251
397.364	3.214
398.364	3.18
