Uv/Vis Spectrum: 4-amino-1,5-dihydro-6,7-pteridinedione
Formula: C6H5N5O2
CAS: 67074-68-4
Melting point: > 360
Instrument: Cary 15
Origin: INSTITUTE OF ENERGY PROBLEMS OF CHEMICAL PHYSICS, RAS
Wavelength (nm)	Logarithm epsilon
225.642	4.141
226.642	4.122
227.642	4.106
228.642	4.092
229.642	4.081
230.642	4.073
231.642	4.067
232.642	4.063
233.642	4.06
234.642	4.059
235.642	4.058
236.642	4.056
237.642	4.054
238.642	4.05
239.642	4.045
240.642	4.039
241.614	4.034
242.614	4.029
243.614	4.022
244.614	4.014
245.614	4.005
246.614	3.995
247.614	3.984
248.614	3.972
249.614	3.958
250.614	3.944
251.614	3.929
252.614	3.913
253.614	3.896
254.614	3.879
255.614	3.861
256.614	3.844
257.614	3.828
258.614	3.813
259.614	3.799
260.614	3.788
261.614	3.779
262.614	3.773
263.614	3.77
264.614	3.77
265.614	3.774
266.614	3.779
267.614	3.786
268.614	3.793
268.631	3.793
269.631	3.798
270.631	3.803
271.631	3.81
272.631	3.817
273.631	3.824
274.631	3.831
275.631	3.838
276.631	3.845
277.631	3.852
278.631	3.858
279.631	3.864
280.631	3.869
281.631	3.875
282.631	3.879
283.631	3.883
284.631	3.887
285.631	3.89
286.631	3.893
287.631	3.895
288.631	3.897
289.631	3.897
290.38	3.897
291.38	3.897
292.38	3.898
293.38	3.9
294.38	3.902
295.38	3.905
296.38	3.908
297.38	3.911
298.38	3.915
299.38	3.919
300.38	3.923
301.38	3.927
302.38	3.931
303.38	3.935
304.38	3.939
305.38	3.943
306.38	3.947
307.38	3.95
308.38	3.953
309.38	3.956
310.38	3.957
311.38	3.959
312.38	3.959
313.38	3.959
314.38	3.958
315.38	3.957
316.38	3.954
317.38	3.951
318.38	3.947
319.38	3.943
320.38	3.938
321.38	3.933
322.38	3.927
323.495	3.918
324.495	3.908
325.495	3.899
326.495	3.889
327.495	3.879
328.495	3.869
329.495	3.858
330.495	3.847
331.495	3.835
332.495	3.823
333.495	3.81
334.495	3.797
335.495	3.783
336.495	3.769
337.495	3.754
338.495	3.739
339.495	3.722
340.416	3.707
341.416	3.689
342.416	3.67
343.416	3.65
344.416	3.629
345.416	3.607
346.416	3.584
347.416	3.562
348.416	3.539
349.416	3.517
350.416	3.495
351.416	3.476
