Uv/Vis Spectrum: N-(4-butylphenyl)-3-oxo-2-(phenylhedrazono)butanamide
Formula: C20H23N3O2
CAS: 67058-87-1
Melting point: 92-93
Instrument: Specord UV-Vis
Origin: INSTITUTE OF ENERGY PROBLEMS OF CHEMICAL PHYSICS, RAS
Wavelength (nm)	Logarithm epsilon
232.05	4.097
233.237	4.108
235.237	4.124
237.237	4.137
239.237	4.143
241.237	4.142
243.237	4.133
245.237	4.12
247.237	4.099
249.197	4.073
251.197	4.03
253.197	3.988
255.197	3.945
257.197	3.901
259.197	3.859
261.197	3.821
263.197	3.789
265.197	3.764
267.197	3.744
269.197	3.728
271.197	3.713
271.203	3.713
273.203	3.694
275.203	3.677
277.203	3.659
279.203	3.643
281.203	3.632
283.203	3.628
285.203	3.635
287.203	3.65
289.203	3.67
291.208	3.691
292.922	3.711
295.208	3.73
297.208	3.747
299.208	3.766
301.208	3.786
303.208	3.807
305.208	3.828
307.208	3.849
309.208	3.871
311.208	3.891
313.208	3.912
315.208	3.932
317.208	3.951
319.208	3.969
321.208	3.987
323.208	4.005
325.208	4.022
327.208	4.038
329.208	4.055
331.208	4.071
333.208	4.087
335.208	4.103
337.208	4.12
339.208	4.136
341.208	4.153
343.208	4.171
345.208	4.189
347.208	4.207
349.208	4.226
351.208	4.246
353.208	4.266
355.208	4.286
357.51	4.311
359.51	4.33
361.51	4.349
363.51	4.368
365.51	4.388
367.51	4.408
369.51	4.427
371.51	4.445
373.51	4.461
375.51	4.475
377.51	4.485
379.51	4.492
381.51	4.495
383.51	4.494
385.51	4.489
387.51	4.479
389.51	4.467
391.51	4.451
393.51	4.432
395.51	4.411
397.51	4.388
399.51	4.363
401.51	4.336
403.51	4.307
405.51	4.274
407.51	4.236
409.51	4.19
