Uv/Vis Spectrum: 4-(dimethylamino)-7,8-dihydro-7-hydroxy-8-methyl-6(5H)-pteridinone
Formula: C9H13N5O2
CAS: 67074-74-2
Melting point: 245
Instrument: Cary 15
Origin: INSTITUTE OF ENERGY PROBLEMS OF CHEMICAL PHYSICS, RAS
Wavelength (nm)	Logarithm epsilon
227.666	4.11
228.666	4.122
229.666	4.132
230.666	4.141
231.666	4.149
232.666	4.157
233.666	4.163
234.666	4.166
235.666	4.163
236.666	4.154
237.317	4.147
237.708	4.142
238.708	4.132
239.708	4.123
240.708	4.116
241.708	4.111
242.708	4.108
243.708	4.107
244.708	4.109
245.708	4.111
246.708	4.114
246.745	4.115
247.745	4.119
248.745	4.122
249.745	4.126
250.745	4.129
251.745	4.13
252.745	4.131
253.745	4.131
254.745	4.129
255.745	4.126
256.745	4.121
257.745	4.115
258.745	4.108
259.745	4.1
260.745	4.091
261.745	4.081
262.745	4.071
262.978	4.07
263.978	4.057
264.978	4.043
265.978	4.029
266.978	4.012
267.978	3.995
268.978	3.977
269.978	3.958
270.978	3.938
271.978	3.917
272.978	3.896
273.978	3.875
274.978	3.853
275.747	3.836
276.747	3.814
277.747	3.797
278.747	3.784
279.747	3.774
280.747	3.767
281.747	3.763
282.747	3.762
283.747	3.762
284.747	3.764
285.747	3.768
286.747	3.773
287.747	3.779
288.747	3.786
289.747	3.793
290.747	3.801
291.747	3.809
292.747	3.818
293.747	3.826
294.747	3.835
295.747	3.843
296.747	3.852
297.747	3.86
298.747	3.869
299.747	3.878
300.747	3.886
301.923	3.897
302.923	3.904
303.923	3.912
304.923	3.919
305.923	3.927
306.923	3.935
307.923	3.942
308.923	3.95
309.923	3.957
310.923	3.964
311.923	3.971
312.923	3.977
313.923	3.983
314.923	3.988
315.923	3.993
316.923	3.997
317.923	4
318.923	4.003
319.923	4.006
320.923	4.007
321.923	4.009
322.923	4.009
323.923	4.009
324.923	4.007
325.923	4.006
326.923	4.003
327.923	4
328.923	3.996
329.923	3.992
330.923	3.987
331.923	3.981
332.923	3.975
333.923	3.968
334.923	3.96
335.923	3.952
336.923	3.944
337.923	3.935
338.923	3.925
339.923	3.915
340.923	3.905
341.923	3.894
342.923	3.883
343.923	3.871
344.923	3.859
345.923	3.847
346.923	3.835
347.923	3.823
348.923	3.81
349.923	3.798
