Uv/Vis Spectrum: 1,5-dihydro-4-methoxy-6,7-pteridinedione
Formula: C7H6N4O3
CAS: 67074-67-3
Melting point: > 350
Instrument: Cary 15
Origin: INSTITUTE OF ENERGY PROBLEMS OF CHEMICAL PHYSICS, RAS
Wavelength (nm)	Logarithm epsilon
221.208	3.961
222.208	3.948
223.208	3.935
224.208	3.921
225.208	3.907
226.208	3.892
227.208	3.877
228.208	3.861
229.208	3.845
230.208	3.829
231.208	3.812
232.208	3.795
233.208	3.778
234.208	3.761
235.208	3.743
236.208	3.726
237.208	3.709
238.208	3.692
239.208	3.675
240.208	3.659
241.208	3.644
242.208	3.63
243.208	3.618
244.208	3.608
245.208	3.6
246.208	3.595
247.208	3.593
248.208	3.595
249.208	3.602
250.273	3.619
251.273	3.64
252.273	3.659
253.273	3.677
254.273	3.695
255.273	3.712
256.273	3.728
257.273	3.744
258.273	3.759
259.273	3.773
260.273	3.786
261.273	3.798
262.273	3.809
263.273	3.819
264.273	3.828
265.273	3.837
266.273	3.846
266.355	3.847
267.355	3.856
268.355	3.867
269.355	3.879
270.355	3.889
271.355	3.894
272.355	3.893
273.355	3.884
274.201	3.877
274.871	3.875
275.542	3.875
276.213	3.875
277.512	3.88
278.512	3.883
279.512	3.888
280.512	3.895
281.512	3.903
282.512	3.913
283.512	3.923
284.512	3.933
285.512	3.944
286.512	3.954
287.512	3.964
288.512	3.973
289.512	3.982
290.512	3.99
291.512	3.997
292.512	4.004
293.512	4.01
294.512	4.015
295.512	4.02
296.512	4.023
297.512	4.026
298.512	4.029
299.512	4.03
300.512	4.031
301.512	4.032
302.512	4.032
303.512	4.031
304.512	4.03
305.512	4.028
306.512	4.025
307.512	4.021
308.512	4.016
309.54	4.008
310.54	4.001
311.54	3.991
312.54	3.979
313.54	3.966
314.54	3.953
315.54	3.939
316.54	3.926
317.54	3.914
318.54	3.901
319.54	3.889
320.54	3.876
321.54	3.863
322.54	3.849
323.54	3.832
324.54	3.814
325.54	3.793
326.54	3.77
327.54	3.743
328.54	3.714
329.54	3.682
330.54	3.648
331.54	3.612
332.54	3.576
333.54	3.542
334.54	3.512
335.388	3.493
336.388	3.468
337.388	3.446
338.388	3.427
339.388	3.407
340.388	3.386
341.388	3.362
342.388	3.334
343.388	3.302
344.388	3.266
345.388	3.227
346.388	3.185
347.388	3.143
348.388	3.104
349.388	3.069
