Uv/Vis Spectrum: 2-amino-6-methylpyrrolo[2,3-d]pyrimidin-4-one, hydrochloride
Formula: C7H9ClN4O
CAS: 67194-80-3
Melting point: > 260
Instrument: Cary 15
Origin: INSTITUTE OF ENERGY PROBLEMS OF CHEMICAL PHYSICS, RAS
Wavelength (nm)	Logarithm epsilon
213.096	4.014
215.096	4.035
217.096	4.06
219.096	4.082
221.096	4.094
223.096	4.092
225.096	4.076
227.096	4.045
229.096	4.003
230.298	3.962
231.242	3.924
233.242	3.859
235.242	3.806
237.242	3.769
239.242	3.751
241.242	3.753
243.242	3.772
245.242	3.806
246.353	3.833
248.074	3.865
249.371	3.888
251.371	3.922
253.371	3.954
255.371	3.982
257.371	4.005
259.371	4.024
261.371	4.037
263.371	4.045
265.371	4.048
267.371	4.047
269.371	4.042
271.371	4.034
273.371	4.024
275.371	4.011
277.371	3.997
279.371	3.981
281.371	3.963
283.371	3.942
285.371	3.918
287.31	3.888
289.31	3.853
291.31	3.811
293.31	3.766
295.31	3.718
297.31	3.666
299.31	3.606
301.31	3.536
303.31	3.456
305.31	3.368
307.31	3.274
309.31	3.18
311.31	3.089
313.31	3.004
315.31	2.919
317.31	2.825
319.31	2.697
