Uv/Vis Spectrum: 2,3,5,6,7,8-hexahydro-8-methyl-(phenylmethyl)-4(1H)-quinolinone
Formula: C17H21NO
CAS: 67152-26-5
Instrument: Cary 15
Origin: INSTITUTE OF ENERGY PROBLEMS OF CHEMICAL PHYSICS, RAS
Wavelength (nm)	Logarithm epsilon
223.618	3.746
224.618	3.685
225.618	3.636
226.618	3.595
227.618	3.563
228.618	3.535
229.618	3.513
230.618	3.494
231.618	3.478
232.618	3.464
233.618	3.452
234.618	3.441
235.618	3.431
236.618	3.421
237.618	3.412
238.618	3.403
239.618	3.394
240.618	3.386
241.618	3.377
242.618	3.369
243.618	3.361
244.618	3.353
245.618	3.345
246.618	3.336
247.618	3.328
248.618	3.32
249.618	3.312
250.618	3.303
251.618	3.294
252.618	3.285
253.618	3.275
254.618	3.266
255.618	3.255
256.618	3.245
257.618	3.233
258.618	3.222
259.618	3.21
260.618	3.198
261.618	3.186
262.618	3.174
263.618	3.162
264.618	3.15
265.618	3.14
266.618	3.13
267.618	3.121
268.618	3.114
269.618	3.109
270.618	3.106
271.618	3.106
272.618	3.109
273.618	3.115
274.618	3.124
275.618	3.137
276.618	3.154
277.618	3.174
278.618	3.197
279.618	3.223
280.618	3.251
281.618	3.28
282.618	3.308
283.63	3.343
284.63	3.383
285.63	3.419
286.63	3.451
287.63	3.48
288.63	3.507
289.63	3.533
290.63	3.558
291.63	3.582
292.63	3.606
293.63	3.63
294.63	3.654
295.63	3.678
296.63	3.702
297.63	3.727
298.63	3.751
299.63	3.775
300.63	3.799
301.63	3.823
302.63	3.847
303.63	3.87
304.63	3.892
305.63	3.913
306.63	3.933
307.63	3.952
308.63	3.97
309.63	3.986
310.63	4.001
311.63	4.013
312.63	4.024
313.63	4.033
314.63	4.04
315.63	4.045
316.63	4.047
317.63	4.048
318.63	4.046
319.63	4.041
320.63	4.035
321.63	4.026
322.63	4.015
323.63	4.001
324.63	3.985
325.63	3.967
326.63	3.946
327.63	3.922
328.63	3.897
329.63	3.868
330.63	3.837
331.63	3.804
332.63	3.768
333.63	3.729
334.63	3.688
335.63	3.644
336.63	3.597
337.63	3.547
338.63	3.494
339.63	3.439
340.63	3.38
341.63	3.318
342.63	3.254
343.63	3.186
344.63	3.116
345.63	3.043
346.63	2.968
347.63	2.891
348.63	2.811
349.63	2.731
350.63	2.65
351.63	2.568
352.63	2.488
353.63	2.41
354.63	2.334
355.63	2.264
356.63	2.199
357.63	2.143
358.63	2.098
359.799	2.036
