Uv/Vis Spectrum: trans-4-Methyl-2-pentene
Formula: C6H12
CAS: 674-76-0
Melting point: -140.8
Boiling point: 58.6
Instrument: Beckman DU
Origin: INSTITUTE OF ENERGY PROBLEMS OF CHEMICAL PHYSICS, RAS
Wavelength (nm)	Logarithm epsilon
170	3.75
171	3.76
172	3.79
173	3.85
174	3.91
175	3.95
176	3.95
177	3.97
178	3.97
179	4.03
180	4.01999
181	4.02
182	4.03
183	4
184	3.96
185	3.94
186	3.94
187	3.91
188	3.84
189	3.76
190	3.7
191	3.65
192	3.6
193	3.54
194	3.47
195	3.41
196	3.36
197	3.31
198	3.25
199	3.17
