Uv/Vis Spectrum: 3-(beta-D-ribofuranosyl)-1H-pyrazolo[4,3-d]pyrimidin-7amine
Formula: C10H13N5O4
CAS: 6742-12-7
Melting point: 153-155
Instrument: Beckman DB-GT
Origin: INSTITUTE OF ENERGY PROBLEMS OF CHEMICAL PHYSICS, RAS
Wavelength (nm)	Logarithm epsilon
221.053	3.848
222.053	3.832
223.053	3.814
224.053	3.795
225.053	3.781
226.053	3.771
227.053	3.766
228.053	3.766
229.053	3.769
230.053	3.773
231.053	3.777
232.053	3.776
233.053	3.771
234.053	3.761
235.053	3.746
235.961	3.729
236.961	3.718
237.961	3.708
238.961	3.7
239.961	3.692
240.961	3.686
241.961	3.681
242.961	3.678
243.961	3.675
244.961	3.674
245.961	3.673
246.961	3.674
247.961	3.676
248.961	3.678
249.961	3.682
250.961	3.686
251.961	3.691
252.961	3.697
253.961	3.703
254.961	3.71
255.961	3.717
256.961	3.724
257.961	3.732
258.961	3.741
259.961	3.749
260.961	3.758
261.961	3.767
262.961	3.776
263.961	3.785
264.961	3.795
265.961	3.804
266.961	3.813
267.961	3.823
268.961	3.833
269.961	3.842
270.961	3.852
271.961	3.862
272.961	3.872
273.961	3.881
274.961	3.891
275.961	3.901
276.961	3.911
277.961	3.92
278.961	3.93
279.961	3.939
280.961	3.948
281.961	3.956
282.961	3.963
283.961	3.969
284.961	3.974
286.223	3.981
287.56	3.986
288.654	3.986
289.654	3.986
290.654	3.984
291.654	3.979
292.654	3.973
293.654	3.965
294.654	3.956
295.654	3.944
296.654	3.932
297.654	3.918
298.654	3.903
299.654	3.887
300.654	3.87
301.654	3.852
302.654	3.833
303.435	3.82
304.437	3.805
305.475	3.783
306.516	3.759
307.443	3.73
308.475	3.666
309.475	3.572
310.475	3.466
311.475	3.363
311.957	3.311
312.557	3.268
313.557	3.224
314.557	3.193
315.557	3.163
316.407	3.13
317.047	3.092
317.498	3.049
317.965	3.015
318.118	2.983
318.578	2.951
318.884	2.913
319.498	2.871
