Uv/Vis Spectrum: 1H-Pyrazole, 3,5-dimethyl-
Formula: C5H8N2
CAS: 67-51-6
Instrument: Cary 17
Origin: INSTITUTE OF ENERGY PROBLEMS OF CHEMICAL PHYSICS, RAS
Wavelength (nm)	Logarithm epsilon
200.21	3.612
200.42	3.616
200.63	3.619
200.83	3.622
201.05	3.626
201.24	3.629
201.48	3.632
201.87	3.638
202.35	3.645
202.93	3.652
203.14	3.656
203.35	3.66
203.76	3.666
204.44	3.673
205	3.678
206	3.688
206.48	3.692
206.99	3.697
207.99	3.707
209	3.715
209.73	3.721
210.64	3.729
211.56	3.735
212.48	3.741
213.42	3.747
214.36	3.76
216.27	3.765
217.24	3.76
218.22	3.747
219.21	3.716
220.2	3.674
221.01	3.639
222.22	3.586
222.99	3.545
224.27	3.476
225	3.413
226.37	3.294
227.01	3.22
227.39	3.175
228.02	3.081
228.5	3.01
229	2.909
229.58	2.799
