Uv/Vis Spectrum: Barbituric acid
Formula: C4H4N2O3
CAS: 67-52-7
Melting point: 248
Boiling point: 260 dec
Instrument: n.i.g.
Origin: INSTITUTE OF ENERGY PROBLEMS OF CHEMICAL PHYSICS, RAS
Wavelength (nm)	Logarithm epsilon
237.56	3.88
237.91	3.896
238.25	3.903
238.6	3.918
238.94	3.932
239.29	3.945
239.64	3.952
239.98	3.965
240.67	3.977
241.71	4.03
242.75	4.067
243.79	4.115
244.83	4.158
245.87	4.193
246.9	4.246
247.94	4.285
248.98	4.32
250.02	4.355
251.06	4.399
252.09	4.424
253.13	4.452
254.17	4.473
255.21	4.49
256.25	4.498
257.28	4.492
258.32	4.481
259.36	4.461
260.4	4.438
261.44	4.409
262.47	4.373
263.51	4.352
264.55	4.314
265.59	4.266
266.63	4.219
267.66	4.181
268.7	4.101
269.74	4.035
270.78	3.99
271.82	3.938
272.85	3.88
273.89	3.831
274.93	3.766
275.97	3.712
277.01	3.651
278.04	3.595
279.08	3.53
280.12	3.494
281.16	3.454
282.2	3.388
283.24	3.336
284.27	3.278
285.31	3.246
