Uv/Vis Spectrum: 2-Piperidinone
Formula: C5H9NO
CAS: 675-20-7
Melting point: 39.5
Boiling point: 256
Instrument: n.i.g.
Origin: INSTITUTE OF ENERGY PROBLEMS OF CHEMICAL PHYSICS, RAS
Wavelength (nm)	Logarithm epsilon
216.031	2.98542
216.032	2.98609
216.032	2.98675
216.033	2.98738
216.134	2.97582
216.134	2.97669
216.135	2.97755
216.135	2.97838
216.236	2.96663
216.237	2.96753
216.238	2.9684
216.238	2.96925
216.335	2.95927
216.335	2.95972
216.336	2.96016
216.336	2.96057
216.437	2.949
216.438	2.94946
216.438	2.94993
216.438	2.95039
216.54	2.93922
216.541	2.93995
216.541	2.94064
216.541	2.94133
216.644	2.93137
216.659	2.93102
216.676	2.93068
216.695	2.93033
216.9	2.90995
216.907	2.90959
216.916	2.90922
216.926	2.90885
217.055	2.89924
217.055	2.89976
217.055	2.90028
217.055	2.90081
217.256	2.87865
217.256	2.87919
217.256	2.87972
217.256	2.88021
217.361	2.87209
217.367	2.87143
217.376	2.87073
217.386	2.87001
217.514	2.85777
217.514	2.85834
217.514	2.85891
217.515	2.85949
218.032	2.81671
218.038	2.81596
218.047	2.81517
218.056	2.81435
218.185	2.80237
218.186	2.80337
218.186	2.80432
218.187	2.80525
218.341	2.79062
218.341	2.79128
218.341	2.79193
218.341	2.79253
218.445	2.78149
218.462	2.7795
218.48	2.77745
218.5	2.77537
218.657	2.76914
218.663	2.7683
218.672	2.76742
218.682	2.76651
218.811	2.75426
218.827	2.75321
218.843	2.75213
218.862	2.751
219.802	2.67865
219.803	2.67685
219.817	2.67584
219.857	2.67478
219.957	2.66424
219.991	2.66162
220.037	2.65675
220.086	2.64587
220.086	2.64587
220.162	2.64384
220.196	2.64222
220.218	2.63964
220.537	2.61929
220.537	2.62084
220.538	2.62236
220.538	2.62382
220.693	2.60582
220.697	2.60353
220.723	2.60195
220.795	2.59973
220.899	2.58549
220.9	2.58656
220.9	2.58764
220.9	2.58871
221.057	2.57424
221.063	2.57292
221.072	2.57153
221.081	2.57011
221.319	2.54882
221.319	2.54999
221.319	2.55116
221.32	2.55232
221.795	2.5126
221.811	2.51004
221.827	2.50746
221.845	2.50487
222.058	2.48724
222.084	2.48563
222.109	2.48393
222.135	2.48218
222.322	2.46461
222.337	2.46256
222.354	2.46045
222.373	2.45824
222.688	2.43398
222.694	2.43217
222.703	2.43025
222.713	2.42827
222.713	2.42827
222.886	2.42652
222.97	2.425
223.008	2.40596
223.016	2.41151
223.025	2.41698
223.036	2.42238
223.036	2.42238
223.375	2.38095
223.392	2.37971
223.411	2.37847
223.431	2.37722
224.328	2.3025
224.354	2.3021
224.381	2.30158
224.411	2.30098
225.657	2.20241
225.664	2.20054
225.673	2.19867
225.683	2.19679
226.082	2.16615
226.097	2.1641
226.114	2.16195
226.133	2.15961
228.315	1.97222
228.341	1.97138
228.367	1.97025
228.392	1.96898
228.9	1.9229
228.936	1.9157
228.972	1.90823
229.007	1.90029
230.077	1.83223
230.099	1.81906
230.14	1.80935
230.235	1.79472
230.82	1.73049
230.856	1.72679
230.892	1.72255
230.928	1.71802
231.514	1.65487
231.557	1.65309
231.602	1.65071
231.648	1.64801
232.259	1.56151
232.296	1.56143
232.332	1.56134
232.368	1.56126
232.902	1.48737
232.928	1.48479
232.954	1.48133
232.98	1.4774
233.489	1.39573
233.531	1.39249
233.576	1.38813
233.623	1.38319
234.183	1.28205
234.226	1.27783
234.271	1.27215
234.317	1.26568
234.827	1.16998
234.869	1.16451
234.914	1.15712
234.96	1.14867
235.413	1.019
235.449	1.0187
235.485	1.01841
235.522	1.01811
