Uv/Vis Spectrum: Acetone
Formula: C3H6O
CAS: 67-64-1
Melting point: -94.8
Boiling point: 56.0
Instrument: Beckman spectrophotometer
Origin: INSTITUTE OF ENERGY PROBLEMS OF CHEMICAL PHYSICS, RAS
Wavelength (nm)	Logarithm epsilon
307.247	2.72653
306.169	2.84244
305.18	2.93358
304.271	3.00878
303.434	3.07292
302.661	3.12895
301.945	3.17881
301.279	3.22384
300.656	3.26499
300.067	3.30298
299.508	3.33836
298.97	3.37154
298.447	3.40286
297.933	3.43259
297.421	3.46096
296.905	3.48814
296.905	3.48814
296.504	3.5119
296.104	3.53442
295.704	3.55584
295.306	3.57625
294.908	3.59574
294.511	3.61439
294.115	3.63228
293.719	3.64946
293.325	3.66598
292.931	3.6819
292.538	3.69726
292.146	3.71209
291.755	3.72643
291.365	3.74032
290.976	3.75377
290.588	3.76682
290.201	3.77949
289.814	3.7918
289.429	3.80377
289.045	3.81542
289.045	3.81542
288.765	3.82654
288.489	3.83738
288.216	3.84796
287.945	3.8583
287.678	3.86839
287.414	3.87825
287.152	3.8879
286.892	3.89733
286.635	3.90657
286.379	3.91561
286.126	3.92447
285.874	3.93316
285.624	3.94167
285.375	3.95001
285.128	3.9582
284.882	3.96624
284.636	3.97413
284.392	3.98188
284.148	3.98949
283.905	3.99697
283.662	4.00432
283.419	4.01154
283.177	4.01865
282.934	4.02564
282.691	4.03252
282.448	4.03929
282.204	4.04596
281.96	4.05252
281.715	4.05898
281.469	4.06534
281.222	4.07161
280.974	4.07779
280.724	4.08388
280.473	4.08989
280.221	4.09581
279.966	4.10165
279.71	4.1074
279.452	4.11308
279.192	4.11869
278.929	4.12422
278.664	4.12967
278.397	4.13506
278.127	4.14038
277.854	4.14563
277.579	4.15081
277.3	4.15593
277.018	4.16099
276.733	4.16599
276.445	4.17092
276.154	4.1758
275.858	4.18062
275.559	4.18538
275.256	4.19009
274.95	4.19475
274.639	4.19935
274.324	4.2039
274.324	4.2039
274.075	4.21921
273.727	4.20791
273.676	4.2195
273.499	4.21245
273.373	4.21682
273.373	4.21682
273.373	4.22037
273.373	4.2208
273.373	4.22121
273.373	4.22159
273.373	4.22159
273.269	4.21979
273.208	4.215
273.207	4.21682
273.207	4.22159
273.037	4.21682
273.037	4.22159
273.03	4.21526
272.94	4.21573
272.858	4.21682
272.858	4.21682
272.858	4.22008
272.858	4.22008
272.858	4.22159
272.36	4.22418
272.031	4.22634
271.591	4.22845
271.591	4.22845
270.945	4.23393
270.103	4.23851
269.191	4.24281
268.334	4.24743
268.334	4.24743
267.419	4.2498
266.542	4.25145
265.702	4.25244
264.898	4.25281
264.129	4.25261
263.394	4.25189
262.693	4.25069
262.024	4.24905
261.386	4.24701
260.78	4.24461
260.203	4.2419
259.656	4.23892
259.138	4.23569
258.647	4.23228
258.184	4.22872
257.748	4.22506
257.338	4.22135
256.954	4.21762
256.594	4.21394
256.259	4.21035
255.948	4.20691
255.661	4.20367
255.397	4.20069
255.155	4.19802
254.935	4.19573
254.935	4.19573
254.79	4.19386
254.616	4.19157
254.416	4.18889
254.191	4.18581
253.944	4.18237
253.675	4.17857
253.386	4.17443
253.079	4.16997
252.756	4.16519
252.417	4.16011
252.065	4.15475
251.701	4.14912
251.327	4.14325
250.944	4.13713
250.553	4.1308
250.157	4.12427
249.756	4.11755
249.353	4.11068
248.948	4.10366
248.543	4.09653
248.139	4.08931
247.739	4.08203
247.342	4.07471
246.951	4.06738
246.567	4.06009
246.191	4.05286
245.825	4.04572
245.825	4.04572
245.737	4.04515
245.641	4.04453
245.542	4.04388
245.542	4.04388
245.279	4.03718
245.011	4.03037
244.737	4.02346
244.456	4.01643
244.171	4.00928
243.881	4.00201
243.586	3.99462
243.286	3.9871
242.982	3.97945
242.675	3.97166
242.364	3.96372
242.05	3.95564
241.733	3.9474
241.413	3.93901
241.091	3.93045
240.767	3.92171
240.44	3.91279
240.113	3.90369
239.784	3.89439
239.454	3.88489
239.123	3.87518
238.792	3.86524
238.46	3.85507
238.129	3.84466
237.798	3.83399
237.467	3.82305
237.467	3.82305
237.115	3.81241
236.763	3.80144
236.412	3.79014
236.061	3.77848
235.708	3.76646
235.352	3.75408
234.993	3.74131
234.63	3.72815
234.262	3.71459
233.889	3.70061
233.508	3.68621
233.12	3.67135
232.724	3.65603
232.319	3.64024
231.904	3.62394
231.478	3.60713
231.041	3.58979
230.592	3.57188
230.13	3.5534
229.655	3.5343
229.166	3.51458
229.166	3.51458
228.794	3.4962
228.027	3.46182
227.383	3.42719
227.383	3.42719
226.913	3.4148
226.682	3.40635
226.488	3.39463
226.488	3.39463
226.122	3.38578
225.414	3.36373
224.289	3.32524
222.676	3.26435
