Uv/Vis Spectrum: N-(4-ethyl-3,4-dimethyl-5-methylene-2-selenazolidinylidene)benzenamine
Formula: C14H18N2Se
CAS: 67766-78-3
Melting point: 72
Instrument: Specord UV-Vis
Origin: INSTITUTE OF ENERGY PROBLEMS OF CHEMICAL PHYSICS, RAS
Wavelength (nm)	Logarithm epsilon
202.852	3.601
203.852	3.605
204.852	3.603
205.852	3.597
206.852	3.587
207.852	3.574
208.852	3.558
209.852	3.539
210.852	3.517
211.852	3.492
212.852	3.465
213.852	3.437
214.852	3.411
215.914	3.39
216.914	3.371
217.914	3.352
218.914	3.335
219.914	3.321
220.914	3.311
221.914	3.305
222.914	3.302
223.914	3.303
224.914	3.306
225.914	3.312
226.914	3.318
227.914	3.326
228.914	3.333
229.925	3.339
230.925	3.347
231.925	3.353
232.925	3.359
233.925	3.364
234.925	3.368
235.925	3.371
236.925	3.374
237.925	3.377
238.925	3.379
239.925	3.38
240.925	3.38
241.925	3.379
242.925	3.377
243.925	3.372
244.925	3.366
245.925	3.358
246.925	3.347
247.925	3.334
248.925	3.319
249.925	3.301
250.925	3.282
251.925	3.261
252.925	3.239
253.925	3.217
254.925	3.195
255.925	3.174
257.06	3.154
258.06	3.14
259.06	3.124
260.06	3.107
261.06	3.089
262.06	3.07
263.06	3.052
264.06	3.035
265.06	3.017
266.06	3
267.06	2.983
268.06	2.967
269.06	2.95
270.06	2.934
271.06	2.917
272.06	2.9
273.06	2.883
274.06	2.865
275.06	2.847
276.06	2.828
277.06	2.808
278.06	2.787
279.06	2.766
280.06	2.744
281.06	2.721
282.06	2.697
283.06	2.673
284.06	2.648
285.06	2.623
286.06	2.597
287.06	2.571
288.06	2.543
289.06	2.515
290.06	2.486
291.06	2.456
292.06	2.423
293.06	2.388
294.06	2.349
295.06	2.306
296.06	2.257
297.06	2.201
298.06	2.135
299.06	2.058
300.06	1.967
301.06	1.859
302.06	1.73
303.06	1.578
