Uv/Vis Spectrum: (S)-2,3-dihydro-2,3-dimethyl-1H-isoindol-1-one
Formula: C10H11NO
CAS: 67720-28-9
Melting point: 140
Instrument: Cary 15
Origin: INSTITUTE OF ENERGY PROBLEMS OF CHEMICAL PHYSICS, RAS
Wavelength (nm)	Logarithm epsilon
217.054	4.01
217.854	4.012
218.654	4.025
219.454	4.038
220.254	4.043
221.054	4.038
221.854	4.027
221.861	4.027
222.661	4.017
223.461	4.011
224.261	4.008
225.061	4.006
225.861	4.007
226.661	4.015
227.212	4.025
227.906	4.033
228.682	4.038
229.542	4.036
230.277	4.023
231.011	4.008
231.746	3.992
232.558	3.976
233.333	3.959
234.108	3.94
234.883	3.919
235.658	3.899
236.433	3.883
237.209	3.872
237.984	3.864
238.759	3.86
239.534	3.855
240.309	3.851
241.084	3.849
241.86	3.845
242.635	3.842
243.41	3.838
244.185	3.833
244.96	3.829
245.736	3.825
246.511	3.819
247.286	3.815
248.061	3.805
248.836	3.795
249.611	3.786
250.387	3.775
251.162	3.765
251.937	3.757
252.712	3.747
253.487	3.735
254.262	3.722
255.038	3.707
255.813	3.695
256.588	3.68
257.363	3.666
258.138	3.646
258.914	3.633
259.689	3.618
260.464	3.602
261.239	3.583
262.014	3.569
262.789	3.546
263.565	3.527
264.34	3.505
265.115	3.493
265.89	3.472
266.665	3.45
267.441	3.427
268.216	3.406
268.991	3.383
269.766	3.356
270.541	3.331
271.316	3.305
272.092	3.281
272.867	3.251
273.642	3.225
274.417	3.219
275.192	3.225
275.967	3.236
276.743	3.246
277.518	3.251
278.293	3.251
279.068	3.241
279.843	3.219
280.619	3.197
281.394	3.173
282.169	3.147
282.944	3.121
283.719	3.084
