Uv/Vis Spectrum: 2-Chloro-N-(1H-perimidin-2-yl)acetamide
Formula: C13H10ClN3O
CAS: 67818-87-5
Melting point: 207 dec.
Instrument: Specord UV-Vis
Origin: INSTITUTE OF ENERGY PROBLEMS OF CHEMICAL PHYSICS, RAS
Wavelength (nm)	Logarithm epsilon
215.62	4.544
216.82	4.556
218.02	4.57
219.22	4.585
220.42	4.6
221.62	4.614
222.82	4.628
224.02	4.64
225.22	4.649
226.42	4.655
227.62	4.657
228.82	4.655
230.02	4.647
231.22	4.633
232.42	4.613
233.62	4.585
234.82	4.549
235.892	4.514
237.092	4.463
238.292	4.416
239.492	4.373
240.692	4.335
241.892	4.301
243.092	4.273
244.292	4.25
245.492	4.232
246.692	4.22
247.892	4.215
249.092	4.216
250.292	4.223
251.492	4.238
252.692	4.26
253.892	4.29
255.369	4.328
256.966	4.357
258.166	4.379
259.366	4.397
260.566	4.415
261.766	4.433
262.966	4.449
264.166	4.461
265.366	4.467
266.566	4.463
267.766	4.448
268.966	4.423
270.274	4.388
271.474	4.352
272.674	4.31
273.874	4.265
275.074	4.222
276.274	4.183
277.474	4.148
278.674	4.116
279.874	4.087
281.074	4.059
282.274	4.03
283.474	4.001
284.674	3.97
285.776	3.944
286.976	3.905
288.176	3.879
289.376	3.863
290.576	3.855
291.776	3.852
292.976	3.853
294.176	3.858
295.376	3.865
296.576	3.874
297.776	3.883
298.976	3.894
300.176	3.906
301.376	3.919
302.576	3.934
303.862	3.952
305.062	3.971
306.262	3.99
307.462	4.008
308.662	4.026
309.862	4.045
311.062	4.065
312.262	4.086
313.462	4.108
314.662	4.131
315.862	4.154
317.003	4.171
318.408	4.184
319.9	4.178
321.227	4.165
322.233	4.134
323.239	4.114
324.378	4.102
325.871	4.083
327.363	4.071
328.856	4.052
330.279	4.032
331.479	4
332.679	3.969
333.879	3.938
335.079	3.909
336.279	3.88
337.479	3.852
338.679	3.825
339.879	3.799
341.079	3.773
342.279	3.748
343.479	3.722
344.679	3.696
345.879	3.67
347.079	3.643
348.279	3.616
349.479	3.587
350.679	3.558
351.879	3.527
353.079	3.495
354.279	3.462
355.479	3.428
356.679	3.393
357.879	3.358
359.079	3.324
360.279	3.29
361.479	3.258
362.679	3.228
363.879	3.202
