Uv/Vis Spectrum: [7S-(7alpha,10alpha,12a alpha)]-N-(6,7,9,10-tetrahydro-1,2,3,10-tetramethoxy-9-oxo-5H-10,12a-epoxybenzo[a]heptalen-7-yl-acetamide
Formula: C22H25NO7
CAS: 6788-02-9
Melting point: 251-253
Instrument: Unicam SP-700
Origin: INSTITUTE OF ENERGY PROBLEMS OF CHEMICAL PHYSICS, RAS
Wavelength (nm)	Logarithm epsilon
205.933	4.633
207.433	4.643
208.933	4.648
210.433	4.663
211.933	4.678
213.433	4.677
214.933	4.65
216.433	4.595
217.933	4.526
219.2	4.467
220.7	4.423
222.2	4.381
223.7	4.345
225.2	4.316
226.7	4.295
228.2	4.278
229.7	4.266
231.2	4.253
232.7	4.239
234.2	4.221
235.7	4.198
237.2	4.168
238.7	4.132
240.2	4.09
241.7	4.042
243.2	3.989
244.7	3.93
245.956	3.873
247.456	3.796
248.956	3.714
250.456	3.632
251.956	3.554
253.456	3.484
254.956	3.424
256.456	3.374
257.956	3.335
259.456	3.306
260.956	3.287
262.456	3.275
263.956	3.27
265.456	3.269
266.956	3.271
268.456	3.274
269.956	3.277
271.456	3.279
272.956	3.278
274.207	3.276
275.707	3.264
277.207	3.252
278.707	3.24
280.207	3.226
281.707	3.212
283.207	3.197
284.707	3.181
286.207	3.164
287.707	3.146
289.207	3.129
290.707	3.111
292.207	3.093
293.707	3.075
295.207	3.057
296.707	3.04
298.207	3.023
299.707	3.006
301.207	2.989
302.707	2.973
304.207	2.957
305.707	2.94
307.207	2.924
308.707	2.907
310.207	2.89
311.707	2.873
313.207	2.855
314.707	2.837
316.207	2.818
317.707	2.799
319.207	2.779
320.707	2.76
322.207	2.74
323.384	2.725
324.884	2.708
326.384	2.69
327.884	2.671
329.384	2.652
330.884	2.633
332.384	2.613
333.884	2.594
335.384	2.574
336.884	2.556
338.384	2.538
339.884	2.521
341.384	2.506
342.884	2.492
344.384	2.479
345.884	2.468
347.384	2.458
348.884	2.449
350.384	2.441
351.884	2.434
353.384	2.427
354.884	2.42
356.384	2.413
357.884	2.405
359.384	2.396
360.884	2.385
362.384	2.373
363.884	2.359
365.384	2.345
366.884	2.329
368.384	2.313
369.884	2.298
371.384	2.286
