Uv/Vis Spectrum: 2,2,2-Trichloro-N-(1H-perimidin-2-yl)acetamide
Formula: C13H8Cl3N3O
CAS: 67818-88-6
Melting point: 214
Instrument: Specord UV-Vis
Origin: INSTITUTE OF ENERGY PROBLEMS OF CHEMICAL PHYSICS, RAS
Wavelength (nm)	Logarithm epsilon
210.973	4.27
212.173	4.275
213.373	4.286
214.573	4.3
215.773	4.317
216.973	4.335
218.173	4.355
219.373	4.376
220.573	4.398
221.773	4.421
222.973	4.446
224.173	4.471
225.373	4.494
226.573	4.515
227.773	4.53
228.973	4.534
230.173	4.523
231.373	4.489
232.041	4.457
232.579	4.429
233.779	4.335
234.979	4.255
236.179	4.188
237.379	4.131
238.579	4.083
239.779	4.043
240.979	4.009
242.179	3.983
243.379	3.961
244.579	3.946
245.779	3.935
246.979	3.929
248.179	3.929
249.379	3.934
250.579	3.943
251.779	3.957
252.979	3.976
254.179	3.998
255.379	4.025
256.579	4.053
257.779	4.083
258.979	4.113
260.25	4.141
261.45	4.167
262.65	4.19
263.85	4.212
265.05	4.236
266.25	4.26
267.45	4.286
268.65	4.313
269.85	4.337
271.05	4.358
272.25	4.374
273.45	4.381
274.65	4.38
275.85	4.367
277.05	4.345
278.25	4.312
279.45	4.272
280.223	4.245
280.908	4.22
282.108	4.181
283.308	4.148
284.508	4.12
285.708	4.094
286.908	4.07
288.108	4.048
289.308	4.026
290.508	4.005
291.708	3.986
292.908	3.968
294.108	3.952
295.308	3.939
296.508	3.93
297.708	3.924
298.908	3.923
300.108	3.928
301.308	3.938
302.508	3.954
303.708	3.974
304.908	4
306.115	4.031
307.315	4.058
308.515	4.092
309.715	4.128
310.915	4.163
312.115	4.189
313.315	4.198
314.515	4.181
315.328	4.152
315.903	4.123
317.103	4.08
318.303	4.05
319.503	4.03
320.703	4.018
321.903	4.013
323.103	4.011
324.303	4.01
325.7	4.012
326.9	4.009
328.1	3.997
329.3	3.975
330.5	3.944
331.436	3.912
332.712	3.858
333.912	3.812
335.112	3.763
336.312	3.713
337.512	3.662
338.712	3.611
339.912	3.559
341.112	3.508
342.312	3.457
343.512	3.408
344.712	3.359
345.912	3.313
347.112	3.269
348.312	3.227
349.512	3.188
350.712	3.153
351.912	3.121
353.112	3.094
