Uv/Vis Spectrum: N,N-dimethyl-1H-perimidin-2-amine
Formula: C13H13N
CAS: 67818-89-7
Melting point: 186-188
Instrument: Specord UV-Vis
Origin: INSTITUTE OF ENERGY PROBLEMS OF CHEMICAL PHYSICS, RAS
Wavelength (nm)	Logarithm epsilon
220.449	4.584
221.649	4.612
222.849	4.632
224.049	4.646
225.249	4.657
226.449	4.666
227.649	4.671
228.849	4.672
230.049	4.668
231.249	4.657
232.449	4.639
233.649	4.611
234.849	4.573
236.049	4.526
236.14	4.529
237.34	4.47
238.54	4.418
239.74	4.371
240.94	4.327
242.14	4.284
243.34	4.242
244.54	4.2
245.74	4.158
246.94	4.114
248.14	4.07
249.34	4.024
250.54	3.978
251.74	3.931
252.94	3.884
254.14	3.838
255.34	3.792
256.54	3.748
257.74	3.705
258.94	3.664
260.14	3.626
261.34	3.591
262.54	3.56
263.74	3.532
264.94	3.507
266.14	3.487
267.34	3.47
268.54	3.458
269.74	3.449
270.94	3.444
272.14	3.442
273.34	3.443
274.54	3.447
275.74	3.454
276.94	3.462
278.14	3.472
279.34	3.483
280.54	3.495
281.74	3.507
282.94	3.52
284.14	3.532
285.34	3.545
286.54	3.557
287.74	3.57
288.94	3.585
290.14	3.601
291.34	3.621
291.662	3.628
292.862	3.656
294.062	3.684
295.262	3.711
296.462	3.738
297.662	3.763
298.862	3.787
300.062	3.811
301.262	3.833
302.462	3.855
303.662	3.876
304.862	3.897
306.062	3.918
307.262	3.939
308.462	3.959
309.662	3.978
310.862	3.996
312.062	4.011
313.262	4.023
314.462	4.029
315.662	4.027
316.862	4.016
318.699	3.999
320.147	3.985
322.196	3.976
323.692	3.976
325.404	3.975
326.685	3.988
328.113	4.001
329.313	4.015
330.513	4.022
331.713	4.023
332.913	4.02
334.113	4.013
335.313	4.005
336.513	3.995
337.713	3.984
338.913	3.973
340.113	3.961
341.313	3.95
342.513	3.939
343.713	3.928
344.913	3.917
346.113	3.907
347.313	3.896
348.513	3.886
349.713	3.876
350.913	3.866
352.113	3.856
353.313	3.846
354.513	3.835
355.713	3.825
356.913	3.814
358.113	3.802
359.313	3.791
360.513	3.779
361.713	3.767
362.913	3.754
364.113	3.742
365.313	3.729
366.513	3.716
367.713	3.703
368.913	3.691
370.113	3.678
371.313	3.665
372.513	3.653
373.713	3.64
374.913	3.628
376.113	3.615
377.313	3.603
378.513	3.59
379.713	3.577
380.913	3.564
382.113	3.549
383.313	3.535
384.513	3.519
385.713	3.502
386.913	3.484
388.113	3.465
389.313	3.444
390.513	3.422
391.713	3.398
392.913	3.374
394.113	3.348
395.313	3.322
396.513	3.296
397.713	3.271
398.913	3.248
400.113	3.228
401.313	3.214
