Uv/Vis Spectrum: N-Butyl-1H-perimidin-2-amine
Formula: C15H17N3
CAS: 67818-85-3
Melting point: 100-101
Instrument: Specord UV-Vis
Origin: INSTITUTE OF ENERGY PROBLEMS OF CHEMICAL PHYSICS, RAS
Wavelength (nm)	Logarithm epsilon
219.362	4.687
219.591	4.692
220.791	4.721
221.991	4.747
223.191	4.772
224.391	4.795
225.591	4.817
226.791	4.836
227.991	4.85
229.191	4.858
230.391	4.859
231.591	4.851
232.791	4.834
233.991	4.807
235.181	4.78
236.363	4.751
238.016	4.7
238.744	4.669
239.944	4.62
241.144	4.547
242.344	4.458
243.544	4.358
244.744	4.253
245.944	4.146
247.144	4.042
248.344	3.942
249.544	3.848
250.744	3.761
251.944	3.682
253.144	3.612
254.344	3.55
255.544	3.497
256.744	3.451
257.944	3.413
259.144	3.381
260.344	3.355
261.544	3.334
262.744	3.318
263.944	3.306
265.144	3.297
266.344	3.291
267.544	3.288
268.744	3.288
269.944	3.289
271.144	3.293
272.433	3.298
273.544	3.308
274.744	3.32
275.944	3.334
277.144	3.352
278.344	3.372
279.544	3.395
280.744	3.421
281.944	3.448
283.144	3.476
284.576	3.523
285.776	3.568
286.976	3.612
288.176	3.653
289.376	3.692
290.576	3.729
291.776	3.765
292.976	3.799
294.176	3.831
295.376	3.861
296.576	3.89
297.776	3.917
298.976	3.943
300.176	3.968
301.376	3.991
302.576	4.012
303.776	4.033
304.976	4.052
306.176	4.069
307.376	4.086
308.576	4.101
309.776	4.115
310.976	4.128
312.176	4.14
313.376	4.15
314.576	4.16
315.776	4.168
316.976	4.175
318.176	4.181
319.376	4.186
320.576	4.19
321.776	4.194
322.976	4.196
324.176	4.197
325.376	4.197
326.576	4.197
327.776	4.195
328.976	4.193
330.176	4.19
331.376	4.186
332.576	4.181
333.776	4.175
334.976	4.169
336.176	4.162
337.376	4.154
338.576	4.146
339.776	4.137
340.976	4.127
342.176	4.117
343.376	4.106
344.576	4.095
345.5	4.084
346.7	4.073
347.9	4.061
349.1	4.049
350.3	4.037
351.5	4.025
352.7	4.013
353.9	4.001
355.1	3.988
356.3	3.976
357.5	3.963
358.7	3.95
359.9	3.937
361.1	3.924
362.3	3.91
363.5	3.897
364.7	3.883
365.9	3.869
367.1	3.855
368.3	3.841
369.5	3.827
370.7	3.813
371.9	3.798
373.1	3.784
374.3	3.769
375.5	3.755
376.7	3.74
377.9	3.726
379.1	3.711
380.3	3.696
381.5	3.681
382.7	3.666
383.9	3.651
385.1	3.635
386.3	3.619
387.5	3.603
388.7	3.586
389.9	3.568
391.1	3.55
392.3	3.531
393.5	3.51
394.7	3.489
395.9	3.466
396.522	3.45
