Uv/Vis Spectrum: 4-ethyl-4,5-dihydro-4-methyl-5-methylene-N-phenyl-2-selenazolamine
Formula: C13H16N2Se
CAS: 67972-01-4
Melting point: 130
Instrument: Specord UV-Vis
Origin: INSTITUTE OF ENERGY PROBLEMS OF CHEMICAL PHYSICS, RAS
Wavelength (nm)	Logarithm epsilon
202.36	3.53
203.36	3.534
204.36	3.535
205.36	3.531
206.36	3.523
207.36	3.51
208.36	3.493
209.36	3.471
210.36	3.445
211.36	3.417
212.36	3.387
213.448	3.352
214.448	3.328
215.448	3.302
216.448	3.276
217.448	3.253
218.448	3.234
219.448	3.218
220.448	3.207
221.448	3.201
222.448	3.2
223.448	3.202
224.448	3.208
225.448	3.216
226.448	3.226
227.448	3.237
228.448	3.249
229.394	3.26
230.394	3.27
231.394	3.28
232.394	3.29
233.394	3.301
234.394	3.312
235.394	3.323
236.394	3.334
237.394	3.345
238.394	3.355
239.394	3.364
240.394	3.372
241.394	3.38
242.394	3.385
243.394	3.39
244.394	3.392
245.394	3.393
246.394	3.391
247.394	3.388
248.394	3.384
249.394	3.377
250.394	3.369
251.394	3.359
252.394	3.348
253.394	3.336
254.394	3.324
255.394	3.31
256.394	3.296
257.394	3.282
258.394	3.267
259.394	3.252
260.394	3.237
261.394	3.222
262.394	3.206
263.394	3.189
264.394	3.169
265.398	3.146
266.398	3.124
267.398	3.103
268.398	3.082
269.398	3.062
270.398	3.042
271.398	3.02
272.398	2.997
273.398	2.973
274.398	2.947
275.398	2.918
276.398	2.888
277.398	2.856
278.398	2.822
279.398	2.786
280.398	2.75
281.398	2.712
282.398	2.674
283.398	2.635
284.398	2.595
285.398	2.555
286.398	2.515
287.398	2.472
288.398	2.428
289.398	2.379
290.398	2.325
291.398	2.263
292.398	2.189
293.398	2.1
294.398	1.99
295.398	1.854
296.398	1.685
