Uv/Vis Spectrum: Tetraethylammonium iodide
Formula: C8H20IN
CAS: 68-05-3
Instrument: Cary 14
Origin: INSTITUTE OF ENERGY PROBLEMS OF CHEMICAL PHYSICS, RAS
Wavelength (nm)	Logarithm epsilon
197.172	4.284
199.172	4.271
201.172	4.272
203.172	4.279
205.172	4.286
207.172	4.285
209.172	4.268
211.172	4.228
212.753	4.178
214.253	4.115
215.753	4.039
217.253	3.956
218.753	3.872
220.253	3.791
221.753	3.719
223.253	3.661
224.753	3.62
226.253	3.599
227.753	3.599
229.253	3.621
230.753	3.663
232.253	3.72
233.593	3.774
235.093	3.852
236.593	3.924
238.093	3.991
239.593	4.05
241.093	4.099
242.593	4.135
244.093	4.155
245.593	4.158
247.093	4.142
248.593	4.106
250.093	4.053
251.593	3.982
253.093	3.896
254.593	3.799
256.093	3.694
257.593	3.582
259.093	3.468
260.593	3.349
262.093	3.226
263.593	3.091
265.093	2.936
266.593	2.744
267.69	2.55
