Uv/Vis Spectrum: Formamide, N,N-dimethyl-
Formula: C3H7NO
CAS: 68-12-2
Melting point: -60.4
Boiling point: 153
Instrument: n.i.g.
Origin: INSTITUTE OF ENERGY PROBLEMS OF CHEMICAL PHYSICS, RAS
Wavelength (nm)	Logarithm epsilon
220.612	3.39144
220.911	3.40572
221.21	3.42001
221.506	3.43431
221.802	3.44861
222.097	3.46292
222.392	3.47723
222.686	3.49154
222.979	3.50586
223.273	3.52018
223.567	3.53449
223.861	3.54881
224.156	3.56313
224.452	3.57745
224.749	3.59176
225.047	3.60607
225.347	3.62038
225.649	3.63468
225.952	3.64898
226.257	3.66327
226.565	3.67755
226.876	3.69183
227.189	3.7061
227.505	3.72035
227.825	3.7346
228.147	3.74884
228.474	3.76307
228.804	3.77728
229.138	3.79148
229.477	3.80567
229.82	3.81984
230.168	3.83399
230.521	3.84813
230.879	3.86226
231.242	3.87636
231.61	3.89045
231.985	3.90451
232.365	3.91856
232.752	3.93259
233.145	3.94659
233.545	3.96057
233.951	3.97453
234.365	3.98847
234.786	4.00238
234.786	4.00238
235.251	4.0139
235.751	4.02626
236.294	4.03897
236.893	4.05158
237.557	4.0636
238.297	4.07456
239.125	4.08401
240.051	4.09147
241.085	4.09647
242.239	4.09853
243.523	4.09719
244.947	4.09199
244.947	4.09199
245.979	4.07931
246.889	4.06521
247.694	4.04999
248.407	4.03393
249.045	4.01734
249.623	4.00051
250.156	3.98374
250.661	3.96732
250.661	3.96732
250.998	3.95329
251.327	3.93924
251.649	3.92515
251.965	3.91104
252.274	3.8969
252.576	3.88274
252.872	3.86855
253.161	3.85434
253.445	3.84011
253.723	3.82585
253.995	3.81157
254.261	3.79727
254.523	3.78296
254.779	3.76862
255.029	3.75426
255.275	3.73989
255.517	3.7255
255.754	3.71109
255.986	3.69667
256.214	3.68223
256.438	3.66778
256.659	3.65332
256.875	3.63885
257.088	3.62436
257.298	3.60986
257.504	3.59536
257.707	3.58084
257.908	3.56632
258.106	3.55179
258.301	3.53725
258.494	3.52271
258.684	3.50816
258.873	3.49361
259.06	3.47905
259.245	3.46449
259.428	3.44993
259.61	3.43537
259.791	3.42081
259.97	3.40625
260.149	3.39169
260.327	3.37713
260.504	3.36258
260.682	3.34803
260.858	3.33348
261.035	3.31894
261.212	3.3044
261.389	3.28987
261.567	3.27535
261.745	3.26084
261.923	3.24634
262.103	3.23184
262.284	3.21736
262.466	3.20289
262.466	3.20289
262.749	3.18716
263.037	3.17151
263.334	3.15595
263.642	3.14045
263.965	3.12501
264.304	3.10961
264.663	3.09424
265.044	3.07889
265.451	3.06354
265.885	3.04819
266.35	3.03283
266.849	3.01743
267.384	3.002
267.957	2.98652
267.957	2.98652
268.944	2.97678
269.874	2.97284
271.487	2.97178
271.487	2.97178
273.108	2.98044
274.692	2.98899
276.311	2.99632
278.036	3.0013
279.938	3.00283
279.938	3.00283
281.135	2.99173
282.194	2.98057
283.134	2.96925
283.975	2.95769
284.258	2.9632
284.437	2.9603
284.62	2.95734
284.736	2.9458
284.814	2.95427
285.437	2.93349
286.097	2.92068
286.736	2.90727
287.372	2.89318
288.026	2.87832
288.716	2.8626
288.716	2.8626
289.183	2.84645
289.65	2.83026
290.118	2.81405
290.588	2.79781
291.061	2.78156
291.537	2.76531
291.537	2.76531
291.796	2.74954
292.055	2.73377
292.314	2.718
292.573	2.70223
292.832	2.68646
293.091	2.67069
293.35	2.65492
293.608	2.63915
293.867	2.62338
294.126	2.60761
294.385	2.59184
294.644	2.57607
294.903	2.5603
295.162	2.54453
295.421	2.52876
