Uv/Vis Spectrum: 14H-benz[4,5]isoquino[2,1-a]perimidin-14-one
Formula: C22H12N2O
CAS: 6829-22-7
Melting point: 253
Instrument: SF-8
Origin: INSTITUTE OF ENERGY PROBLEMS OF CHEMICAL PHYSICS, RAS
Wavelength (nm)	Logarithm epsilon
221.88	4.679
222.88	4.66
223.88	4.645
224.88	4.634
225.88	4.624
226.88	4.614
227.88	4.605
228.88	4.594
229.88	4.582
230.88	4.569
231.88	4.555
232.88	4.539
233.88	4.523
234.88	4.506
235.88	4.488
236.88	4.47
237.88	4.452
238.88	4.434
239.88	4.417
240.88	4.399
241.88	4.382
242.88	4.365
243.88	4.349
244.88	4.333
245.88	4.317
246.88	4.302
247.88	4.287
248.88	4.273
249.88	4.259
250.88	4.246
251.88	4.233
252.88	4.222
253.88	4.211
254.88	4.202
255.88	4.194
256.88	4.188
257.88	4.184
258.88	4.183
259.88	4.183
260.88	4.186
261.88	4.191
262.88	4.198
263.681	4.208
264.681	4.209
265.681	4.213
266.681	4.22
267.681	4.229
268.681	4.238
269.681	4.247
270.681	4.256
271.681	4.263
272.681	4.268
273.681	4.272
274.681	4.273
275.681	4.272
276.681	4.268
277.681	4.263
278.681	4.255
279.681	4.245
280.681	4.234
281.681	4.22
282.322	4.212
283.322	4.196
284.322	4.18
285.322	4.164
286.322	4.148
287.322	4.131
288.322	4.115
289.322	4.099
290.322	4.082
291.322	4.067
292.322	4.052
293.322	4.039
294.322	4.028
295.322	4.02
296.322	4.016
297.055	4.005
298.055	3.993
299.055	3.982
300.055	3.972
301.055	3.963
302.055	3.956
303.055	3.951
304.055	3.949
305.055	3.948
306.055	3.951
307.055	3.955
308.055	3.962
309.055	3.97
310.055	3.98
311.055	3.991
311.696	4
312.696	4.012
313.696	4.023
314.696	4.033
315.696	4.044
316.696	4.056
317.696	4.068
318.696	4.08
319.696	4.093
320.696	4.106
321.696	4.118
322.696	4.129
323.696	4.139
324.696	4.149
325.696	4.159
326.345	4.167
327.345	4.178
328.345	4.189
329.345	4.199
330.345	4.208
331.345	4.215
332.345	4.22
333.345	4.222
334.345	4.222
335.345	4.219
336.345	4.213
337.345	4.205
338.345	4.195
339.345	4.185
339.376	4.188
340.376	4.172
341.376	4.161
342.376	4.156
343.376	4.155
344.376	4.157
345.376	4.162
346.376	4.168
347.376	4.175
348.376	4.181
349.376	4.187
350.376	4.19
351.376	4.19
352.376	4.186
353.376	4.178
354.376	4.163
355.376	4.142
356.376	4.113
357.376	4.075
357.452	4.068
358.452	4.029
359.452	3.993
360.452	3.958
361.452	3.925
362.452	3.894
363.452	3.864
364.452	3.835
365.452	3.808
366.452	3.781
367.452	3.756
368.452	3.733
369.452	3.71
370.452	3.689
371.452	3.668
372.452	3.649
373.452	3.632
374.452	3.616
375.452	3.601
376.452	3.587
377.452	3.575
378.452	3.564
379.452	3.555
380.452	3.547
381.452	3.54
382.452	3.535
383.452	3.531
384.452	3.528
385.452	3.526
386.452	3.525
387.452	3.524
388.452	3.525
389.452	3.525
390.452	3.526
391.345	3.522
392.345	3.525
393.345	3.526
394.345	3.528
395.345	3.529
396.345	3.53
397.345	3.532
398.345	3.533
399.345	3.535
400.345	3.538
401.345	3.541
402.345	3.545
403.345	3.549
404.345	3.554
405.345	3.56
406.345	3.566
407.345	3.573
408.345	3.581
409.345	3.589
410.345	3.598
411.345	3.608
412.345	3.618
413.345	3.628
414.345	3.639
415.345	3.65
416.345	3.661
417.345	3.673
418.345	3.684
419.345	3.696
420.345	3.708
421.345	3.72
422.345	3.732
423.345	3.743
423.543	3.75
424.543	3.759
425.543	3.769
426.543	3.779
427.543	3.79
428.543	3.801
429.543	3.813
430.543	3.824
431.543	3.836
432.543	3.847
433.543	3.858
434.543	3.869
435.543	3.88
436.543	3.891
437.543	3.901
438.543	3.911
439.543	3.921
440.543	3.93
441.543	3.939
442.543	3.948
443.543	3.956
444.543	3.963
445.543	3.97
446.543	3.977
447.543	3.983
448.543	3.988
449.543	3.993
450.543	3.998
451.543	4.002
452.543	4.006
453.543	4.009
454.543	4.012
455.543	4.014
456.543	4.016
457.543	4.018
458.543	4.019
459.543	4.019
460.543	4.02
461.543	4.019
462.543	4.019
463.543	4.018
464.543	4.017
465.543	4.016
466.543	4.014
467.543	4.012
468.543	4.009
469.543	4.007
470.543	4.004
471.543	4
472.543	3.997
473.543	3.993
474.543	3.989
475.543	3.985
476.543	3.98
477.543	3.975
478.543	3.97
479.543	3.964
480.543	3.959
481.543	3.952
482.543	3.946
483.421	3.938
484.421	3.933
485.421	3.927
486.421	3.921
487.421	3.914
488.421	3.907
489.421	3.9
490.421	3.893
491.421	3.886
492.421	3.878
493.421	3.871
494.421	3.863
495.421	3.855
496.421	3.847
497.421	3.839
498.421	3.831
499.421	3.822
500.421	3.814
501.421	3.806
502.421	3.798
503.421	3.789
504.421	3.781
505.421	3.772
506.421	3.764
507.421	3.755
508.421	3.747
509.421	3.739
510.421	3.73
511.421	3.722
512.421	3.713
513.421	3.705
514.421	3.696
515.421	3.687
516.421	3.679
517.421	3.67
518.421	3.662
519.421	3.653
520.421	3.644
521.421	3.636
522.421	3.627
523.421	3.618
524.421	3.609
525.421	3.601
526.421	3.592
527.421	3.583
528.421	3.574
529.421	3.565
530.421	3.556
531.421	3.546
532.421	3.537
533.421	3.528
534.421	3.519
535.421	3.509
536.421	3.5
537.421	3.491
538.421	3.481
539.421	3.472
540.421	3.462
541.421	3.453
542.421	3.443
543.421	3.433
544.421	3.424
545.421	3.414
546.421	3.405
547.421	3.395
548.421	3.385
549.421	3.376
550.421	3.366
551.421	3.357
552.421	3.347
553.421	3.338
554.421	3.328
555.421	3.319
556.421	3.31
557.421	3.301
558.421	3.292
559.421	3.283
560.421	3.274
561.421	3.265
562.421	3.257
563.421	3.248
564.421	3.24
565.421	3.232
566.421	3.224
567.421	3.216
568.421	3.209
569.421	3.201
570.421	3.194
571.421	3.187
572.421	3.179
573.421	3.173
574.421	3.166
575.421	3.159
576.421	3.152
577.421	3.146
578.421	3.139
579.421	3.133
580.421	3.126
581.421	3.119
