Uv/Vis Spectrum: 1,2,5,6-Tetrahydrodicyclobuta[b, g]naphthalene
Formula: C14H12
CAS: 68216-62-6
Melting point: 220-222
Instrument: unknown
Origin: INSTITUTE OF ENERGY PROBLEMS OF CHEMICAL PHYSICS, RAS
Wavelength (nm)	Logarithm epsilon
235.704	3.83
236.304	3.743
236.904	3.663
237.504	3.589
238.104	3.527
238.447	3.5
238.845	3.48
239.352	3.471
239.907	3.472
240.538	3.472
241.145	3.454
241.664	3.423
242.183	3.379
242.654	3.337
243.126	3.292
243.645	3.237
243.975	3.19
244.363	3.131
244.565	3.1
244.966	3.047
245.466	3.003
245.966	2.983
246.466	2.983
246.965	2.992
247.182	2.998
247.524	3.005
247.85	3.017
248.223	3.029
248.596	3.046
248.994	3.06
249.397	3.068
249.808	3.067
250.202	3.064
250.605	3.056
250.973	3.046
251.411	3.028
251.813	3.011
252.216	2.994
252.619	2.98
253.024	2.972
253.424	2.971
253.816	2.972
254.236	2.977
254.632	2.989
255.035	3.016
255.437	3.048
255.913	3.101
256.243	3.14
256.645	3.194
257.032	3.23
257.312	3.257
257.451	3.281
257.854	3.314
258.256	3.353
258.659	3.378
259.062	3.408
259.464	3.421
259.867	3.426
260.27	3.426
260.672	3.425
261.075	3.42
261.478	3.413
261.88	3.408
262.283	3.404
262.686	3.404
263.088	3.408
263.491	3.413
263.894	3.421
264.297	3.433
264.699	3.449
265	3.466
265.28	3.485
265.505	3.498
265.839	3.521
266.352	3.55
266.713	3.573
267.115	3.593
267.518	3.608
267.921	3.631
268.323	3.645
268.726	3.661
269.129	3.67
269.531	3.669
269.929	3.661
270.229	3.651
270.529	3.641
270.829	3.632
271.129	3.623
271.429	3.614
271.729	3.605
272.029	3.596
272.329	3.587
272.629	3.578
272.929	3.571
273.229	3.564
273.529	3.559
273.829	3.556
274.129	3.556
274.429	3.559
274.729	3.566
275.029	3.577
275.169	3.585
275.48	3.601
275.781	3.617
276.081	3.635
276.381	3.651
276.681	3.667
276.981	3.682
277.281	3.696
277.581	3.709
277.881	3.721
278.181	3.732
278.481	3.742
278.781	3.751
279.045	3.762
279.397	3.775
279.8	3.785
280.203	3.792
280.605	3.781
280.933	3.769
281.247	3.755
282.063	3.709
282.88	3.658
283.459	3.619
283.944	3.585
284.244	3.568
284.544	3.552
284.844	3.538
285.144	3.525
285.444	3.515
285.744	3.507
286.044	3.503
286.344	3.501
286.644	3.504
286.944	3.51
287.244	3.521
287.544	3.536
287.844	3.556
288.144	3.581
288.347	3.617
288.518	3.64
288.727	3.658
289.263	3.671
289.691	3.683
289.934	3.693
290.27	3.703
290.646	3.711
291.117	3.713
291.647	3.707
292.509	3.684
293.173	3.655
293.758	3.625
294.095	3.597
294.829	3.537
295.706	3.431
296.582	3.341
297.361	3.259
297.848	3.203
298.318	3.143
298.822	3.097
299.018	3.079
299.33	3.075
299.733	3.086
300.136	3.104
300.538	3.124
300.941	3.15
301.306	3.173
301.545	3.194
301.948	3.229
302.196	3.259
302.45	3.284
302.753	3.299
303.059	3.282
303.212	3.259
303.559	3.237
303.936	3.205
304.314	3.18
304.61	3.161
304.949	3.142
305.371	3.137
305.839	3.151
306.176	3.183
306.635	3.256
307.053	3.347
307.345	3.404
307.646	3.454
307.836	3.492
308.004	3.513
308.452	3.524
308.885	3.517
309.242	3.501
309.8	3.467
310.19	3.419
310.479	3.384
310.962	3.325
311.411	3.269
311.638	3.248
311.88	3.225
312.17	3.203
312.619	3.189
313.087	3.196
313.522	3.212
313.827	3.237
314.295	3.332
314.585	3.399
314.778	3.429
315.237	3.485
315.454	3.503
315.741	3.513
316.241	3.506
316.646	3.484
317.014	3.429
317.242	3.388
317.598	3.334
318.28	3.266
318.861	3.219
319.263	3.194
319.666	3.177
320.069	3.189
320.292	3.241
320.438	3.293
320.536	3.359
320.828	3.46
320.974	3.533
321.12	3.607
321.266	3.68
321.394	3.727
321.607	3.763
322.143	3.784
322.776	3.775
323.142	3.759
324.516	3.662
325.391	3.537
326.515	3.181
327.116	2.91
327.72	2.715
328.313	2.606
329.041	2.468
