Uv/Vis Spectrum: [2-Chloro-2-(4-chlorophenyl)ethenyl]phosphonic dichloride
Formula: C8H5Cl4OP
CAS: 68469-42-1
Melting point: 50-51
Instrument: Specord UV-Vis
Origin: INSTITUTE OF ENERGY PROBLEMS OF CHEMICAL PHYSICS, RAS
Wavelength (nm)	Logarithm epsilon
201.534	4.048
202.334	4.043
203.134	4.038
203.934	4.034
204.734	4.031
205.534	4.027
206.334	4.024
207.134	4.021
207.934	4.018
208.734	4.014
209.534	4.011
210.334	4.009
211.134	4.007
211.934	4.005
212.39	4.003
213.19	4.004
213.99	4.008
214.79	4.013
215.59	4.02
216.39	4.028
217.19	4.036
217.99	4.044
218.79	4.052
219.59	4.059
220.39	4.065
221.19	4.069
221.99	4.071
222.833	4.071
223.633	4.068
224.433	4.06
225.233	4.048
226.033	4.034
226.833	4.018
227.633	4.002
228.69	3.986
229.49	3.97
230.29	3.964
231.09	3.958
231.89	3.941
232.481	3.915
233.345	3.832
234.145	3.757
234.945	3.693
235.745	3.64
236.545	3.595
237.345	3.56
238.145	3.532
238.945	3.512
239.745	3.498
240.545	3.49
241.345	3.487
242.145	3.489
242.945	3.495
243.745	3.505
244.545	3.518
245.345	3.534
246.145	3.552
246.945	3.571
247.745	3.593
248.545	3.615
249.345	3.638
250.145	3.662
250.945	3.686
251.745	3.71
252.545	3.735
252.972	3.746
253.584	3.766
254.384	3.795
255.184	3.824
255.984	3.851
256.784	3.877
257.584	3.903
258.384	3.927
259.184	3.951
259.984	3.975
260.784	3.998
261.584	4.02
262.384	4.041
263.184	4.062
263.984	4.082
264.784	4.102
265.584	4.121
266.384	4.139
267.184	4.157
267.984	4.174
268.784	4.19
269.584	4.206
270.384	4.221
271.184	4.235
271.984	4.248
272.784	4.261
273.584	4.273
274.384	4.284
275.184	4.293
275.984	4.303
276.784	4.311
277.584	4.318
278.384	4.324
279.184	4.329
279.984	4.334
280.784	4.337
281.584	4.34
282.384	4.341
283.184	4.342
283.984	4.342
284.784	4.341
285.584	4.339
286.384	4.336
287.184	4.332
287.984	4.328
288.784	4.323
289.584	4.317
290.384	4.31
291.184	4.303
291.984	4.295
292.784	4.286
293.584	4.277
294.384	4.267
295.184	4.256
295.984	4.245
296.784	4.233
297.584	4.221
298.384	4.209
299.184	4.195
299.984	4.181
300.784	4.167
301.584	4.151
302.384	4.135
303.184	4.118
303.984	4.1
304.784	4.081
305.584	4.06
306.384	4.038
307.184	4.014
307.984	3.989
308.747	3.963
309.55	3.929
310.35	3.893
311.15	3.857
311.95	3.82
312.75	3.778
313.55	3.732
314.35	3.678
315.15	3.617
315.95	3.547
316.75	3.469
317.55	3.384
318.35	3.291
319.15	3.192
319.95	3.09
320.75	2.986
321.55	2.882
322.35	2.783
323.15	2.692
323.95	2.613
