Uv/Vis Spectrum: Silane, dimethoxydiphenyl-
Formula: C14H16O2Si
CAS: 6843-66-9
Boiling point: 161(15)
Instrument: Spectronom 201 UV
Origin: INSTITUTE OF ENERGY PROBLEMS OF CHEMICAL PHYSICS, RAS
Wavelength (nm)	Logarithm epsilon
206.676	3.94309
207.495	3.95819
208.316	3.97151
209.14	3.98312
209.966	3.99311
210.796	4.00156
211.63	4.00857
212.468	4.0142
213.31	4.01856
214.158	4.02171
215.011	4.02375
215.87	4.02475
216.736	4.02481
217.608	4.02401
217.608	4.02401
218.347	4.01665
219.049	4.00848
220.274	3.99787
220.486	3.99138
221.148	3.96259
221.816	3.9338
222.486	3.905
222.486	3.905
223.082	3.86578
223.668	3.82543
224.246	3.78396
224.819	3.74136
225.389	3.69762
225.958	3.65275
226.528	3.60674
226.528	3.60674
226.838	3.56047
227.143	3.51406
227.446	3.46752
227.746	3.42086
228.043	3.37408
228.338	3.32721
228.631	3.28024
228.922	3.23319
229.212	3.18606
229.501	3.13887
229.789	3.09162
230.076	3.04432
230.364	2.99697
230.651	2.94961
230.939	2.90221
231.228	2.85481
231.518	2.8074
231.809	2.76
232.102	2.71261
232.397	2.66525
232.694	2.61792
232.994	2.57063
233.296	2.52339
233.602	2.47621
233.911	2.4291
234.225	2.38207
234.542	2.33513
234.542	2.33513
234.918	2.29477
235.344	2.24876
235.822	2.20067
236.359	2.15412
236.961	2.1127
237.632	2.07999
238.378	2.0596
238.378	2.0596
239.358	2.07747
240.298	2.10794
241.235	2.14238
241.235	2.14238
242.156	2.19287
242.963	2.23713
243.672	2.27612
244.301	2.3108
244.867	2.34212
245.386	2.37105
245.876	2.39855
246.352	2.42558
246.834	2.45309
247.336	2.48204
247.876	2.5134
248.472	2.54813
249.139	2.58717
249.896	2.6315
250.758	2.68207
250.758	2.68207
251.365	2.71316
251.973	2.74463
252.582	2.7764
253.193	2.8084
253.806	2.84054
254.422	2.87275
255.04	2.90496
255.662	2.93709
256.287	2.96907
256.916	3.00081
257.55	3.03224
258.188	3.06329
258.832	3.09388
259.481	3.12393
260.136	3.15337
260.798	3.18212
261.466	3.2101
262.141	3.23724
262.824	3.26347
263.515	3.2887
264.214	3.31286
264.922	3.33588
265.639	3.35767
266.365	3.37816
267.101	3.39729
267.848	3.41495
267.848	3.41495
268.815	3.42844
269.77	3.44387
270.725	3.45918
271.69	3.47228
272.675	3.48109
273.69	3.48354
273.69	3.48354
274.108	3.47089
274.817	3.44321
276.427	3.37678
276.427	3.37678
277.596	3.35294
278.83	3.33246
280.024	3.31065
280.024	3.31065
280.776	3.26753
281.383	3.2229
281.873	3.17597
282.277	3.12594
282.621	3.07201
282.936	3.01338
283.248	2.94925
283.248	2.94925
283.627	2.89239
284.021	2.8374
284.424	2.78309
284.831	2.72825
285.237	2.6717
285.636	2.61223
285.636	2.61223
285.798	2.58003
285.95	2.54984
286.092	2.52129
286.229	2.49402
286.36	2.46766
286.487	2.44184
286.613	2.4162
286.739	2.39036
286.866	2.36395
286.997	2.33661
287.132	2.30797
287.275	2.27767
287.426	2.24533
287.587	2.21059
287.759	2.17307
287.946	2.13241
288.147	2.08825
288.366	2.04021
288.603	1.98793
288.86	1.93103
289.14	1.86916
289.443	1.80194
289.771	1.729
290.127	1.64997
290.512	1.5645
290.927	1.4722
291.374	1.37271
291.855	1.26567
291.855	1.26567
292.187	1.21146
292.519	1.15724
292.85	1.10303
293.182	1.04881
293.514	0.994594
293.845	0.940377
294.177	0.886163
