Uv/Vis Spectrum: Acetamide, N,N-diethyl-
Formula: C6H13NO
CAS: 685-91-6
Boiling point: 185.5
Instrument: n.i.g.
Origin: INSTITUTE OF ENERGY PROBLEMS OF CHEMICAL PHYSICS, RAS
Wavelength (nm)	Logarithm epsilon
184.171	3.68151
184.267	3.68299
184.351	3.68297
184.436	3.68464
184.531	3.68462
184.616	3.68609
184.7	3.68607
184.796	3.68754
184.964	3.6875
185.06	3.68915
185.144	3.68913
185.147	3.69227
185.231	3.69225
185.232	3.69372
185.411	3.69368
185.496	3.69512
185.497	3.69676
186.557	3.70696
186.642	3.70694
186.737	3.70834
186.822	3.70832
186.823	3.70991
186.907	3.70989
187.088	3.71267
187.172	3.71265
187.268	3.71421
187.352	3.71419
187.353	3.71559
187.438	3.71557
187.619	3.71848
187.703	3.71847
187.704	3.71985
187.799	3.71983
187.8	3.7212
187.884	3.72119
187.969	3.72271
188.86	3.73102
188.861	3.73236
188.946	3.73368
189.03	3.73367
189.032	3.73517
189.116	3.73515
189.212	3.73646
189.296	3.73644
189.297	3.73777
189.381	3.73775
189.382	3.73924
189.477	3.73922
189.478	3.74054
189.646	3.74051
189.647	3.74182
189.742	3.7418
189.743	3.74327
189.827	3.74326
189.913	3.74455
190.71	3.7539
190.804	3.75388
191.156	3.75905
191.24	3.75903
191.241	3.76029
191.336	3.76027
191.688	3.76552
191.772	3.7655
191.773	3.76674
191.868	3.76673
192.124	3.77053
193.369	3.78658
193.453	3.78656
194.167	3.79624
194.967	3.80682
195.051	3.8068
195.935	3.81836
195.936	3.81946
197.363	3.83604
197.364	3.8371
197.45	3.83826
197.534	3.83825
197.535	3.8393
197.798	3.83926
197.801	3.84252
198.865	3.85315
198.95	3.85415
199.045	3.85413
199.13	3.85513
199.214	3.85512
199.215	3.85625
199.394	3.85623
199.395	3.85724
199.48	3.85722
199.481	3.85823
199.575	3.85821
199.661	3.85933
199.745	3.85931
200.636	3.86539
200.983	3.86534
201.068	3.86632
201.415	3.86626
201.511	3.86723
201.858	3.86718
201.944	3.86828
202.123	3.86825
203.174	3.86699
203.521	3.86694
203.615	3.86594
203.868	3.86591
203.961	3.86491
204.223	3.86375
204.224	3.86487
204.307	3.86374
204.39	3.86274
205.352	3.85635
205.435	3.85532
205.53	3.85531
205.696	3.85313
205.789	3.85096
205.791	3.85312
205.872	3.84992
205.873	3.85094
205.955	3.84876
206.133	3.8477
206.134	3.84873
206.217	3.84769
206.476	3.84339
206.477	3.84443
207.255	3.83343
207.256	3.83449
207.513	3.82777
207.515	3.83005
207.595	3.82547
207.597	3.82776
207.688	3.82437
207.689	3.82545
207.853	3.82094
207.854	3.82203
208.546	3.80807
208.548	3.80933
208.722	3.80451
208.723	3.80578
208.804	3.80222
208.805	3.80335
208.887	3.80092
208.888	3.8022
209.063	3.79729
209.064	3.79845
209.145	3.79482
209.147	3.79728
209.238	3.79364
209.239	3.7948
209.405	3.79113
209.835	3.77753
209.917	3.77494
209.918	3.77615
210.091	3.76987
210.093	3.77232
210.174	3.76846
210.175	3.76985
210.35	3.76456
210.351	3.76596
210.431	3.76064
210.433	3.7633
210.943	3.74324
210.944	3.74455
211.117	3.73762
211.119	3.74042
211.2	3.73628
211.201	3.7376
211.282	3.73343
211.283	3.73493
211.374	3.72921
211.376	3.73207
211.538	3.72357
211.54	3.72647
212.05	3.70459
212.051	3.70602
212.141	3.70009
212.143	3.70296
212.305	3.69387
212.307	3.69697
212.398	3.69091
212.399	3.69238
212.478	3.68626
212.481	3.68923
212.558	3.67986
212.561	3.68456
212.814	3.6687
212.816	3.67179
212.896	3.66536
212.898	3.66868
212.988	3.66201
212.99	3.66534
213.07	3.65883
213.071	3.66041
213.152	3.65542
213.153	3.65701
213.246	3.65379
213.247	3.65539
213.328	3.65035
213.329	3.65196
213.41	3.64687
213.411	3.6487
213.501	3.64172
213.504	3.64521
214.013	3.6187
214.016	3.62238
214.095	3.61496
214.096	3.61693
214.176	3.60942
214.178	3.61318
214.267	3.60199
214.27	3.60761
214.945	3.57256
214.946	3.57449
215.037	3.5684
215.038	3.57035
215.119	3.5642
215.12	3.56641
215.201	3.56021
215.202	3.56219
215.293	3.55391
215.295	3.55793
215.711	3.52774
215.712	3.52988
215.793	3.52313
215.794	3.52529
215.885	3.51846
215.887	3.52065
215.967	3.51375
215.969	3.51623
216.048	3.50673
216.05	3.5115
216.561	3.47743
216.564	3.48252
216.655	3.47498
216.656	3.47739
216.737	3.46976
216.738	3.47251
216.82	3.46727
217.506	3.41806
217.509	3.42661
217.588	3.41211
217.589	3.41525
217.68	3.40608
217.682	3.41207
217.76	3.39416
217.763	3.40319
217.842	3.38788
217.843	3.3912
217.934	3.38187
217.935	3.38486
218.44	3.35251
218.533	3.34558
218.534	3.34883
218.698	3.33517
218.699	3.3385
218.79	3.32796
218.791	3.33176
218.873	3.3245
218.874	3.32791
218.955	3.31711
218.957	3.32101
219.048	3.31003
219.05	3.31706
219.131	3.30598
219.132	3.30998
219.214	3.30234
219.646	3.26688
219.728	3.25843
219.729	3.26289
219.822	3.25436
219.823	3.25837
219.987	3.24148
219.988	3.24561
220.081	3.23673
220.082	3.24142
220.339	3.2189
220.34	3.22325
220.422	3.21445
220.423	3.21884
220.506	3.2094
221.284	3.15978
221.285	3.16477
221.367	3.15468
221.46	3.14887
221.462	3.15461
221.544	3.14364
221.545	3.14881
221.627	3.13834
221.628	3.14357
221.804	3.12687
222.845	3.06588
222.928	3.05875
223.105	3.04575
223.107	3.05858
223.189	3.04566
223.281	3.0315
223.283	3.03818
223.449	3.02369
223.45	3.03133
223.625	3.00958
223.708	3.00145
223.71	3.00949
223.803	3.00135
223.886	2.99398
224.936	2.96921
225.019	2.96128
225.102	2.95218
225.103	2.96118
225.722	2.94327
225.723	2.95144
225.805	2.93484
