Uv/Vis Spectrum: 3,5-Isoxazolediybis[(4-bromophenyl)methanone]
Formula: C17H9Br2NO3
CAS: 68659-13-2
Melting point: 170-171.5
Instrument: SF-4
Origin: INSTITUTE OF ENERGY PROBLEMS OF CHEMICAL PHYSICS, RAS
Wavelength (nm)	Logarithm epsilon
225.235	3.914
226.235	3.904
227.235	3.894
228.235	3.886
229.235	3.878
230.235	3.872
231.235	3.866
232.235	3.861
233.235	3.857
234.235	3.853
235.235	3.851
236.235	3.849
237.235	3.849
238.235	3.85
239.235	3.851
240.235	3.855
241.235	3.859
242.235	3.865
243.235	3.873
244.235	3.882
245.235	3.892
246.235	3.904
247.235	3.917
248.235	3.931
249.235	3.945
250.235	3.96
251.235	3.974
251.286	3.974
252.286	3.988
253.286	4.002
254.286	4.015
255.286	4.028
256.286	4.04
257.286	4.053
258.286	4.065
259.286	4.077
260.286	4.089
261.286	4.101
262.286	4.113
263.286	4.125
264.286	4.137
265.286	4.148
266.286	4.16
267.286	4.171
268.286	4.182
269.286	4.192
270.286	4.202
271.286	4.211
272.286	4.22
273.286	4.228
274.286	4.236
275.286	4.243
276.286	4.249
277.286	4.254
278.286	4.259
279.286	4.263
280.286	4.265
281.286	4.267
282.286	4.268
283.286	4.268
284.286	4.267
285.286	4.265
286.286	4.262
287.286	4.258
288.286	4.253
289.286	4.247
290.286	4.241
291.286	4.233
292.286	4.225
293.286	4.215
294.286	4.205
295.286	4.195
296.286	4.183
297.286	4.171
298.286	4.159
299.286	4.145
300.286	4.132
301.286	4.117
302.286	4.103
303.286	4.088
304.286	4.072
305.286	4.056
306.286	4.04
307.286	4.023
308.286	4.006
309.286	3.989
310.286	3.971
