Uv/Vis Spectrum: 5H-pyrido[3,2-b]indol-2,4-diol, diacetate
Formula: C15H12N2O4
CAS: 68835-04-1
Melting point: 240-241
Instrument: Specord UV-Vis
Origin: INSTITUTE OF ENERGY PROBLEMS OF CHEMICAL PHYSICS, RAS
Wavelength (nm)	Logarithm epsilon
204.615	4.186
205.815	4.277
207.015	4.352
208.215	4.411
209.415	4.456
210.615	4.488
211.815	4.508
213.015	4.518
214.215	4.519
215.415	4.513
216.615	4.501
217.815	4.486
219.015	4.467
220.215	4.447
221.245	4.433
222.443	4.417
223.643	4.398
224.843	4.374
226.043	4.349
227.243	4.326
228.443	4.306
229.643	4.288
230.843	4.272
232.043	4.255
233.243	4.232
234.067	4.215
234.506	4.195
235.706	4.126
236.906	4.074
238.106	4.043
239.306	4.032
240.506	4.039
241.706	4.057
242.906	4.08
243.809	4.098
244.799	4.119
245.999	4.148
247.199	4.183
248.399	4.217
249.599	4.246
250.799	4.269
251.999	4.288
252.123	4.289
253.323	4.308
254.523	4.33
255.723	4.345
256.923	4.346
258.123	4.331
259.323	4.301
260.523	4.264
261.625	4.21
262.813	4.159
264	4.093
265.423	4.021
266.623	3.91
267.823	3.806
269.023	3.705
269.939	3.625
270.739	3.533
271.539	3.479
272.339	3.455
273.139	3.454
273.939	3.468
274.69	3.49
275.385	3.516
276.075	3.538
276.867	3.566
277.461	3.599
278.462	3.631
279.231	3.647
280	3.67
280.77	3.685
281.626	3.702
282.426	3.721
283.226	3.747
284.026	3.778
284.826	3.813
285.626	3.849
286.426	3.886
287.226	3.922
288.026	3.956
288.826	3.988
289.626	4.017
290.426	4.043
291.226	4.066
292.026	4.085
292.826	4.103
293.626	4.118
293.891	4.123
294.691	4.142
295.491	4.158
296.291	4.172
297.091	4.183
297.891	4.194
298.691	4.203
299.491	4.211
300.291	4.215
301.091	4.216
301.891	4.211
302.691	4.198
303.491	4.175
304.291	4.138
304.382	4.127
305.182	4.087
305.982	4.052
306.782	4.019
307.582	3.988
308.382	3.959
309.182	3.932
309.982	3.906
310.782	3.881
311.582	3.858
312.382	3.835
313.182	3.814
313.982	3.794
314.782	3.775
315.582	3.757
316.382	3.741
317.182	3.726
317.982	3.713
318.782	3.702
319.582	3.692
320.382	3.685
321.182	3.679
321.982	3.675
322.782	3.672
323.582	3.671
324.382	3.671
325.182	3.671
325.982	3.672
326.552	3.671
327.352	3.672
328.152	3.672
328.952	3.67
329.752	3.667
330.552	3.663
331.352	3.66
332.152	3.656
332.952	3.652
333.752	3.648
334.552	3.645
335.352	3.641
336.152	3.638
336.952	3.635
337.752	3.633
338.552	3.63
339.352	3.627
340.152	3.623
340.952	3.619
341.752	3.614
342.552	3.608
343.352	3.602
344.152	3.594
344.952	3.585
345.752	3.574
346.552	3.562
347.352	3.549
348.152	3.534
348.952	3.518
349.752	3.5
350.552	3.481
351.352	3.462
352.152	3.442
352.952	3.422
