Uv/Vis Spectrum: 4(1H)-Pyridinethione, 1-methyl-
Formula: C6H7NS
CAS: 6887-59-8
Melting point: 161-163
Instrument: Cary Model 14
Origin: INSTITUTE OF ENERGY PROBLEMS OF CHEMICAL PHYSICS, RAS
Wavelength (nm)	Logarithm epsilon
221.47	3.893
222.83	3.91
224.19	3.927
225.56	3.941
226.92	3.957
228.28	3.968
229.81	3.974
231.18	3.984
232.71	3.984
234.24	3.981
235.78	3.971
236.97	3.954
237.82	3.93
238.67	3.903
239.19	3.876
239.7	3.846
239.87	3.816
240.21	3.785
240.55	3.755
240.89	3.725
241.06	3.694
241.4	3.664
241.74	3.634
242.08	3.603
242.25	3.573
242.59	3.542
242.76	3.512
242.93	3.482
243.27	3.451
243.44	3.421
243.61	3.391
243.79	3.36
244.13	3.33
244.47	3.3
244.64	3.269
244.81	3.239
244.98	3.208
245.49	3.181
246.17	3.154
247.02	3.127
248.21	3.107
249.75	3.097
251.28	3.097
252.64	3.111
254.01	3.124
255.37	3.141
256.73	3.158
257.93	3.175
259.29	3.188
260.65	3.205
262.01	3.219
263.38	3.229
264.74	3.242
266.1	3.256
267.47	3.266
268.83	3.276
270.19	3.286
271.56	3.296
272.92	3.306
274.28	3.316
275.81	3.323
277.18	3.333
278.54	3.343
279.9	3.354
281.27	3.37
282.63	3.381
283.99	3.394
285.36	3.411
286.72	3.424
288.08	3.441
289.44	3.458
290.64	3.475
291.66	3.495
292.85	3.515
294.04	3.536
295.07	3.559
296.09	3.583
297.11	3.607
297.96	3.63
298.99	3.654
299.84	3.677
300.69	3.701
301.54	3.728
302.39	3.755
303.24	3.782
304.1	3.809
304.78	3.836
305.63	3.863
306.48	3.89
307.16	3.917
307.84	3.944
308.7	3.968
309.21	3.995
310.06	4.022
310.91	4.049
311.76	4.076
312.61	4.103
313.47	4.126
314.32	4.153
315.17	4.177
316.02	4.2
316.87	4.224
317.9	4.248
318.92	4.271
319.94	4.295
320.96	4.315
322.16	4.335
323.18	4.356
324.37	4.372
325.73	4.389
327.1	4.399
328.63	4.41
330.16	4.416
331.7	4.413
333.23	4.406
334.76	4.396
336.13	4.383
337.32	4.366
338.51	4.345
339.53	4.325
340.39	4.302
341.41	4.278
342.26	4.251
343.11	4.227
343.96	4.2
344.64	4.173
345.5	4.146
346.35	4.119
347.03	4.092
347.71	4.065
348.56	4.038
349.24	4.011
349.93	3.984
350.61	3.957
351.29	3.93
351.97	3.903
352.48	3.876
352.99	3.85
353.67	3.823
354.19	3.796
354.7	3.769
355.21	3.742
355.72	3.715
356.23	3.688
356.74	3.661
357.42	3.634
357.93	3.607
358.44	3.58
358.96	3.553
359.64	3.526
360.15	3.499
360.83	3.472
361.51	3.445
362.02	3.418
362.7	3.391
363.56	3.364
364.07	3.337
365.09	3.313
365.6	3.286
366.45	3.262
367.13	3.235
367.81	3.208
368.67	3.185
369.52	3.158
370.37	3.134
371.22	3.107
372.07	3.084
372.93	3.06
373.95	3.036
374.97	3.013
375.99	2.989
377.19	2.969
378.21	2.949
379.4	2.928
