Uv/Vis Spectrum: 4-Pyridinol-1-oxide
Formula: C5H5NO2
CAS: 6890-62-6
Instrument: Beckman DU
Origin: INSTITUTE OF ENERGY PROBLEMS OF CHEMICAL PHYSICS, RAS
Wavelength (nm)	Logarithm epsilon
202.96	4.062
203.11	4.055
203.3	4.044
203.49	4.032
203.64	4.018
203.82	4.004
203.98	3.991
204.16	3.975
204.33	3.953
204.51	3.931
204.69	3.908
204.87	3.878
205.04	3.848
205.22	3.823
205.39	3.798
205.61	3.767
205.78	3.742
205.93	3.719
206.08	3.699
206.26	3.678
206.43	3.66
206.61	3.639
206.78	3.609
206.99	3.563
207.13	3.527
207.3	3.488
207.48	3.456
207.61	3.432
207.76	3.405
207.92	3.374
208.17	3.324
208.31	3.304
208.42	3.288
208.57	3.271
208.74	3.254
208.91	3.235
209.12	3.21
209.35	3.18
209.52	3.152
209.7	3.134
209.87	3.112
210.02	3.098
210.19	3.082
210.43	3.063
210.61	3.05
210.78	3.037
210.92	3.029
211.13	3.016
211.51	2.992
211.92	2.967
212.87	2.93
213.4	2.914
213.91	2.903
214.43	2.893
214.95	2.887
215.5	2.88
216.04	2.874
216.53	2.869
217.01	2.866
217.56	2.864
218.08	2.864
218.6	2.864
219.12	2.864
219.67	2.868
220.16	2.871
220.67	2.877
221.21	2.884
221.73	2.893
222.25	2.903
222.74	2.913
223.23	2.923
223.82	2.938
224.28	2.949
224.84	2.964
225.38	2.979
225.84	2.989
226.33	3.004
226.87	3.02
227.47	3.044
227.99	3.063
228.51	3.088
229.03	3.11
229.55	3.128
230.08	3.155
230.6	3.18
231.12	3.204
231.64	3.231
232.16	3.26
232.68	3.288
233.21	3.31
233.73	3.338
234.25	3.358
234.77	3.383
235.29	3.415
235.81	3.437
236.34	3.471
236.86	3.495
237.38	3.518
237.9	3.542
238.42	3.565
238.94	3.59
239.46	3.605
239.99	3.63
240.51	3.656
241.03	3.676
241.55	3.703
242.07	3.726
242.59	3.746
243.12	3.76
243.64	3.782
244.16	3.803
244.68	3.825
245.2	3.847
245.72	3.865
246.24	3.878
246.77	3.9
247.29	3.915
247.81	3.932
248.33	3.952
248.85	3.966
249.37	3.989
249.9	4.007
250.42	4.021
250.94	4.031
251.46	4.043
251.98	4.053
252.5	4.066
253.03	4.075
253.55	4.084
254.07	4.092
254.59	4.098
255.11	4.104
255.63	4.11
256.15	4.115
256.68	4.118
257.2	4.121
257.72	4.123
258.24	4.124
258.76	4.125
259.28	4.125
259.81	4.125
260.33	4.123
260.85	4.122
261.37	4.12
261.89	4.117
262.41	4.113
262.93	4.109
263.46	4.105
263.98	4.1
264.5	4.092
265.02	4.086
265.54	4.08
266.06	4.073
266.59	4.066
267.11	4.059
267.63	4.05
268.15	4.043
268.67	4.034
269.19	4.023
269.71	4.016
270.24	4.007
270.76	4
271.28	3.987
271.8	3.976
272.32	3.968
272.84	3.954
273.37	3.946
273.89	3.927
274.41	3.914
274.93	3.902
275.45	3.89
275.97	3.876
276.5	3.858
277.02	3.846
277.54	3.833
278.06	3.818
278.58	3.806
279.1	3.793
279.62	3.778
280.15	3.765
280.67	3.748
281.19	3.734
281.71	3.721
282.23	3.708
282.75	3.695
283.28	3.679
283.8	3.667
284.3	3.655
284.84	3.644
285.36	3.634
285.88	3.618
286.4	3.605
286.93	3.587
287.45	3.571
287.97	3.557
288.49	3.542
289.01	3.527
289.53	3.514
290.06	3.5
290.58	3.483
291.1	3.474
291.62	3.461
292.14	3.448
292.66	3.435
293.18	3.421
293.71	3.407
294.23	3.395
294.75	3.38
295.27	3.361
295.79	3.338
296.31	3.324
296.84	3.306
297.36	3.291
297.88	3.276
298.35	3.259
298.9	3.242
299.44	3.226
299.97	3.208
300.49	3.19
301.01	3.17
301.48	3.157
302.05	3.139
302.57	3.117
303.1	3.1
303.62	3.082
304.17	3.062
304.66	3.044
305.17	3.023
305.7	3.001
306.22	2.979
306.75	2.96
307.27	2.938
307.86	2.915
308.31	2.893
308.83	2.867
309.35	2.843
309.87	2.822
310.4	2.799
310.92	2.775
311.45	2.749
312.15	2.705
312.61	2.673
313.2	2.64
313.73	2.608
314.23	2.578
315.11	2.531
315.96	2.477
317.41	2.399
319.03	2.301
