Uv/Vis Spectrum: 1,3-diethoxy-5-hydroxyanthraquinone
Formula: C18H16O5
CAS: 69008-02-2
Melting point: 165.5-166
Boiling point: sub. 160/ 0.1 Pa
Instrument: unknown
Origin: INSTITUTE OF ENERGY PROBLEMS OF CHEMICAL PHYSICS, RAS
Wavelength (nm)	Logarithm epsilon
214.533	4.289
217.2	4.308
219.2	4.326
221.2	4.348
223.441	4.375
225.441	4.398
227.441	4.41
229.441	4.415
231.441	4.414
233.441	4.403
235.441	4.377
237.084	4.335
237.875	4.301
239.062	4.266
239.853	4.232
241.832	4.201
244.997	4.182
248.557	4.178
252.118	4.167
255.679	4.163
259.239	4.151
261.613	4.174
263.591	4.201
265.965	4.224
268.734	4.243
271.108	4.266
274.273	4.285
277.438	4.297
280.999	4.305
284.559	4.297
287.724	4.27
290.098	4.247
291.681	4.216
291.801	4.215
293.801	4.171
295.801	4.101
297.801	4.005
299.801	3.888
301.801	3.757
303.801	3.622
305.801	3.496
307.801	3.393
309.801	3.332
310.671	3.307
312.649	3.277
314.627	3.25
317.397	3.23
320.562	3.215
324.122	3.215
326.892	3.234
329.661	3.253
332.431	3.273
334.804	3.296
337.178	3.323
339.552	3.349
341.53	3.376
343.904	3.399
346.278	3.426
348.651	3.453
350.629	3.48
353.003	3.507
355.377	3.534
357.355	3.56
359.729	3.587
361.707	3.614
364.081	3.641
366.455	3.668
368.433	3.695
370.806	3.722
373.049	3.746
375.554	3.771
377.928	3.794
380.302	3.817
383.071	3.837
385.84	3.86
389.005	3.879
392.09	3.896
394.544	3.913
397.709	3.933
400.874	3.948
404.435	3.956
407.996	3.963
411.556	3.967
415.117	3.959
418.678	3.948
421.843	3.933
424.612	3.913
427.381	3.89
430.151	3.867
432.525	3.844
434.898	3.821
437.272	3.798
439.25	3.771
441.228	3.745
443.207	3.714
445.185	3.687
446.767	3.656
448.35	3.626
449.537	3.595
451.119	3.564
452.306	3.534
453.493	3.503
454.68	3.472
455.867	3.441
457.054	3.411
457.845	3.376
459.032	3.346
459.823	3.311
461.01	3.269
462.592	3.238
463.384	3.204
464.57	3.173
465.757	3.138
466.549	3.104
467.736	3.069
468.527	3.035
