Uv/Vis Spectrum: 1-Pentene, 4-methyl-
Formula: C6H12
CAS: 691-37-2
Melting point: -153.6
Boiling point: 53.9
Instrument: Beckman DU
Origin: INSTITUTE OF ENERGY PROBLEMS OF CHEMICAL PHYSICS, RAS
Wavelength (nm)	Logarithm epsilon
170	3.85
171	3.88
172	3.92
173	3.92
174	3.92
175	3.94
176	3.95
177	3.97
178	3.98
179	3.98
180	3.95
181	3.91
182	3.88
183	3.84
184	3.81
185	3.76
186	3.67
187	3.58
188	3.5
189	3.43
