Uv/Vis Spectrum: cis-4-Methyl-2-pentene
Formula: C6H12
CAS: 691-38-3
Boiling point: 57-58.8
Instrument: Zeiss PMQ II
Origin: INSTITUTE OF ENERGY PROBLEMS OF CHEMICAL PHYSICS, RAS
Wavelength (nm)	Logarithm epsilon
182.75	4.118
183.32	4.11
183.97	4.106
184.55	4.095
185.06	4.087
185.51	4.076
186.03	4.063
186.42	4.055
187.01	4.04
187.6	4.022
187.98	4.007
188.44	3.995
188.82	3.98
189.2	3.963
189.51	3.946
189.89	3.928
190.28	3.911
190.59	3.894
190.98	3.879
191.22	3.862
191.61	3.847
191.93	3.83
192.32	3.813
192.64	3.796
192.96	3.779
193.28	3.762
193.6	3.745
193.84	3.728
194.17	3.711
194.49	3.694
194.73	3.677
194.98	3.66
195.22	3.642
195.55	3.625
195.8	3.608
196.05	3.591
196.38	3.574
196.62	3.557
196.87	3.54
197.21	3.523
197.49	3.505
197.71	3.487
197.96	3.47
198.3	3.453
198.55	3.433
198.81	3.414
199.06	3.397
199.32	3.38
199.68	3.348
200.01	3.318
200.3	3.292
200.52	3.273
200.6	3.267
200.69	3.263
200.78	3.256
200.86	3.252
200.95	3.245
201.04	3.241
201.27	3.218
201.56	3.19
201.82	3.169
202.08	3.145
202.34	3.113
202.61	3.073
202.87	3.032
203.14	2.974
203.4	2.932
203.67	2.889
203.94	2.842
204.21	2.797
204.48	2.755
204.75	2.708
205.02	2.661
205.29	2.605
205.56	2.535
205.83	2.479
206.1	2.396
206.38	2.328
206.65	2.259
206.93	2.197
207.2	2.127
207.48	2.054
207.76	1.984
208.04	1.918
208.31	1.839
208.59	1.766
208.87	1.694
209.16	1.623
209.44	1.557
209.72	1.478
210	1.376
210.29	1.28
210.57	1.175
210.86	1.096
