Uv/Vis Spectrum: Quinoxaline, 1-oxide
Formula: C8H6N2O
CAS: 6935-29-1
Melting point: 126.5
Instrument: Hitachi EPS-3
Origin: INSTITUTE OF ENERGY PROBLEMS OF CHEMICAL PHYSICS, RAS
Wavelength (nm)	Logarithm epsilon
219.36	3.939
220.36	3.934
221.36	3.93
222.36	3.928
223.36	3.927
224.36	3.927
225.36	3.929
226.36	3.933
227.36	3.94
228.36	3.95
229.36	3.964
230.36	3.982
231.36	4.005
232.36	4.032
233.36	4.062
234.36	4.096
235.513	4.131
236.608	4.166
237.334	4.193
238.334	4.231
239.334	4.279
240.334	4.33
241.334	4.38
242.334	4.427
243.334	4.467
244.334	4.499
245.334	4.52
246.334	4.53
247.334	4.53
248.334	4.519
248.867	4.508
249.566	4.492
250.381	4.471
251.381	4.448
252.381	4.412
253.381	4.359
254.381	4.29
255.381	4.212
256.381	4.13
257.381	4.052
257.961	4.009
258.51	3.979
259.51	3.931
260.51	3.889
261.51	3.853
262.51	3.822
263.51	3.796
264.51	3.775
265.51	3.757
266.51	3.743
267.51	3.732
268.51	3.725
269.51	3.719
270.51	3.717
271.51	3.717
272.51	3.719
273.51	3.723
274.51	3.729
275.51	3.736
276.51	3.745
277.51	3.755
278.51	3.766
279.51	3.778
280.51	3.791
281.51	3.804
282.51	3.817
282.876	3.822
283.876	3.832
284.876	3.842
285.876	3.852
286.876	3.861
287.876	3.871
288.876	3.879
289.876	3.887
290.876	3.895
291.876	3.902
292.876	3.909
293.876	3.915
294.876	3.92
295.876	3.925
296.876	3.928
297.876	3.932
298.876	3.934
299.876	3.936
300.876	3.937
301.876	3.937
302.876	3.937
303.876	3.936
304.876	3.935
305.876	3.933
306.876	3.932
307.876	3.931
308.876	3.929
309.981	3.925
311.159	3.924
312.159	3.924
313.159	3.927
314.159	3.931
315.159	3.936
316.159	3.942
317.159	3.949
318.159	3.956
319.159	3.963
320.159	3.97
321.159	3.978
322.159	3.986
323.159	3.994
324.159	4.004
325.159	4.013
326.159	4.024
327.159	4.034
328.159	4.045
329.159	4.056
330.159	4.065
330.964	4.072
332.061	4.08
333.061	4.085
334.061	4.09
335.061	4.094
336.061	4.097
337.061	4.1
338.061	4.103
339.061	4.104
340.061	4.105
341.061	4.106
342.061	4.105
343.061	4.104
344.061	4.102
345.061	4.099
346.061	4.095
347.061	4.091
348.061	4.085
349.061	4.079
350.061	4.072
351.061	4.064
352.061	4.055
353.061	4.045
354.061	4.035
355.061	4.024
356.061	4.012
357.061	3.999
358.061	3.986
359.061	3.972
360.061	3.957
361.061	3.942
362.061	3.926
363.061	3.91
364.061	3.893
365.061	3.875
366.061	3.858
367.061	3.84
368.061	3.821
369.061	3.802
370.061	3.783
371.061	3.763
372.061	3.744
373.061	3.724
374.061	3.704
375.061	3.684
376.061	3.663
377.061	3.643
378.061	3.622
379.061	3.602
380.061	3.581
381.061	3.561
382.061	3.54
383.061	3.519
384.061	3.499
385.061	3.478
386.061	3.458
387.061	3.437
388.061	3.417
389.061	3.397
390.061	3.376
391.061	3.356
392.061	3.335
393.061	3.314
393.756	3.289
