Uv/Vis Spectrum: 1H-Imidazole, 2-methyl-
Formula: C4H6N2
CAS: 693-98-1
Melting point: 142
Boiling point: 267-268
Instrument: Hewlett-Packard 8450 A
Origin: INSTITUTE OF ENERGY PROBLEMS OF CHEMICAL PHYSICS, RAS
Wavelength (nm)	Logarithm epsilon
200.95	3.913
201.72	3.913
202.5	3.912
203.27	3.911
204.05	3.911
204.82	3.907
205.6	3.906
206.37	3.902
207.15	3.9
207.92	3.896
208.61	3.891
209.3	3.885
209.99	3.879
210.59	3.871
211.19	3.863
211.71	3.853
212.23	3.844
212.74	3.835
213.26	3.827
213.78	3.818
214.29	3.808
214.72	3.797
215.24	3.786
215.67	3.775
216.1	3.763
216.53	3.751
217.05	3.739
217.48	3.726
217.91	3.713
218.43	3.7
218.94	3.686
219.37	3.672
219.89	3.657
220.41	3.644
220.92	3.629
221.44	3.615
221.96	3.598
222.47	3.58
222.99	3.562
223.51	3.543
224.02	3.523
224.63	3.506
225.14	3.487
225.66	3.464
226.18	3.444
226.69	3.419
227.21	3.396
227.73	3.372
228.16	3.342
228.76	3.315
229.36	3.285
229.88	3.254
230.48	3.22
231	3.184
231.6	3.151
232.2	3.108
232.72	3.06
233.41	3.015
234.01	2.966
234.62	2.91
235.3	2.859
235.99	2.786
236.68	2.735
237.37	2.658
238.06	2.588
238.81	2.527
239.61	2.441
240.38	2.32
241.22	2.177
241.93	1.987
242.71	1.477
243.48	0.882
