Uv/Vis Spectrum: 8-Bromo-1,5-dihydro-[1,3]thiazino[5,4-b]indole-2,4-dithione
Formula: C10H5BrN2S3
CAS: 69343-98-2
Melting point: 315-316 dec.
Instrument: Specord UV-Vis
Origin: INSTITUTE OF ENERGY PROBLEMS OF CHEMICAL PHYSICS, RAS
Wavelength (nm)	Logarithm epsilon
209.319	4.559
210.819	4.551
212.319	4.538
213.819	4.523
215.319	4.506
216.819	4.488
218.319	4.468
219.819	4.446
221.319	4.422
222.819	4.397
224.319	4.37
225.819	4.344
225.958	4.341
227.458	4.32
228.958	4.304
230.458	4.291
231.958	4.291
233.495	4.302
234.995	4.315
236.495	4.323
237.995	4.328
239.495	4.331
240.995	4.332
242.495	4.331
243.995	4.325
245.495	4.313
246.995	4.289
247.147	4.285
248.647	4.252
250.147	4.23
251.647	4.216
253.147	4.21
254.647	4.21
256.147	4.215
257.647	4.222
259.147	4.231
259.236	4.232
260.736	4.241
262.236	4.251
263.736	4.258
265.236	4.261
266.736	4.26
268.236	4.254
269.736	4.245
270.613	4.238
271.801	4.23
273.396	4.225
274.508	4.224
275.572	4.228
276.394	4.235
277.942	4.245
279.442	4.255
280.942	4.266
282.442	4.277
283.942	4.288
285.442	4.299
286.942	4.31
288.442	4.322
289.942	4.333
291.442	4.344
292.942	4.355
294.442	4.366
295.942	4.376
297.442	4.386
298.942	4.394
300.442	4.402
301.942	4.409
303.442	4.415
304.942	4.419
306.442	4.422
307.942	4.423
309.442	4.422
310.942	4.42
312.405	4.416
314.145	4.412
316.03	4.408
317.77	4.405
318.835	4.407
320.816	4.409
322.991	4.409
324.296	4.408
326.471	4.405
328.211	4.401
329.517	4.394
331.112	4.382
332.039	4.37
332.063	4.369
333.563	4.34
335.063	4.311
336.563	4.282
338.063	4.253
339.563	4.225
341.063	4.198
342.563	4.173
344.063	4.148
345.563	4.126
347.063	4.106
348.563	4.089
350.063	4.074
351.563	4.062
353.063	4.053
354.563	4.048
356.063	4.047
357.563	4.05
359.063	4.058
359.079	4.058
360.579	4.069
362.079	4.08
363.579	4.09
365.079	4.1
366.579	4.107
368.079	4.113
369.579	4.116
371.079	4.116
372.316	4.114
373.816	4.105
375.316	4.097
376.816	4.098
378.316	4.109
379.816	4.124
381.082	4.136
382.209	4.145
383.814	4.153
385.418	4.153
386.741	4.146
387.684	4.136
388.627	4.12
389.571	4.089
391.457	3.995
391.497	3.997
392.997	3.901
394.497	3.811
395.997	3.729
397.497	3.657
398.997	3.594
400.497	3.541
401.997	3.499
403.497	3.467
404.997	3.444
406.497	3.429
407.997	3.422
409.497	3.421
410.997	3.425
412.497	3.433
413.997	3.444
415.497	3.456
416.997	3.469
418.497	3.482
419.997	3.495
421.497	3.508
422.997	3.521
424.497	3.536
426.023	3.551
427.557	3.569
428.848	3.585
430.348	3.603
431.848	3.623
433.348	3.645
434.848	3.668
436.348	3.692
437.848	3.717
439.348	3.741
440.848	3.766
442.348	3.789
443.848	3.812
445.348	3.834
446.848	3.855
448.348	3.875
449.848	3.893
451.348	3.91
452.848	3.925
454.348	3.939
455.848	3.952
457.348	3.964
458.848	3.974
460.348	3.983
461.848	3.991
463.348	3.999
464.848	4.006
466.348	4.012
467.848	4.018
469.348	4.023
470.848	4.028
472.348	4.034
473.848	4.038
475.348	4.043
476.848	4.048
478.348	4.053
479.848	4.058
481.348	4.062
482.848	4.066
484.348	4.069
485.848	4.071
487.348	4.072
488.848	4.072
490.348	4.069
491.887	4.063
493.269	4.056
494.769	4.048
496.269	4.039
497.769	4.027
499.269	4.013
500.769	3.996
502.269	3.978
503.769	3.958
505.269	3.936
506.769	3.912
508.269	3.888
509.769	3.862
511.269	3.836
512.769	3.809
514.269	3.782
515.769	3.755
517.269	3.728
518.769	3.701
520.269	3.676
521.769	3.65
523.269	3.626
524.769	3.603
526.269	3.58
527.769	3.558
529.269	3.536
530.769	3.515
532.269	3.494
533.769	3.472
535.269	3.45
536.769	3.426
538.269	3.399
539.769	3.37
