Uv/Vis Spectrum: 2-methylthio-[1,3]thiazino[5,4-b]indole-4(5H)-thione
Formula: C11H8N2S3
CAS: 69344-01-0
Melting point: 219-220
Instrument: Specord UV-Vis
Origin: INSTITUTE OF ENERGY PROBLEMS OF CHEMICAL PHYSICS, RAS
Wavelength (nm)	Logarithm epsilon
210.375	4.5
210.774	4.491
212.274	4.458
213.774	4.432
215.274	4.414
216.774	4.404
218.274	4.4
219.774	4.401
221.274	4.404
222.774	4.407
224.274	4.408
225.774	4.404
227.274	4.394
228.774	4.379
230.274	4.36
231.774	4.336
232.774	4.315
233.34	4.297
234.84	4.252
236.34	4.22
237.84	4.196
239.34	4.18
240.84	4.169
242.34	4.161
243.84	4.158
245.34	4.16
246.638	4.166
248.138	4.184
249.638	4.199
251.138	4.21
252.638	4.214
254.138	4.211
255.638	4.201
257.138	4.18
258.323	4.161
259.823	4.134
261.323	4.11
262.823	4.091
264.323	4.075
265.823	4.063
267.323	4.054
268.823	4.049
270.323	4.047
271.823	4.049
273.323	4.054
274.823	4.062
276.323	4.073
277.823	4.087
279.323	4.105
280.823	4.125
282.323	4.148
283.823	4.174
285.323	4.203
285.725	4.208
287.225	4.224
288.725	4.238
290.225	4.252
291.725	4.265
293.225	4.278
294.725	4.291
296.225	4.302
297.725	4.313
299.225	4.323
300.725	4.331
302.225	4.336
303.725	4.339
305.225	4.339
306.725	4.335
308.225	4.327
309.725	4.316
311.225	4.301
312.725	4.282
314.225	4.261
315.725	4.236
317.225	4.208
318.725	4.179
320.225	4.148
321.725	4.117
322.609	4.098
323.2	4.08
324.7	4.04
326.2	3.999
327.7	3.957
329.2	3.914
330.7	3.871
332.2	3.83
333.7	3.79
335.2	3.752
336.7	3.718
338.2	3.689
339.7	3.664
341.2	3.645
342.7	3.632
344.2	3.625
345.7	3.624
347.2	3.629
348.7	3.638
350.2	3.651
351.7	3.667
353.2	3.685
354.63	3.701
356.13	3.715
357.63	3.729
359.13	3.746
360.63	3.764
362.13	3.784
363.63	3.806
365.13	3.828
366.63	3.852
368.13	3.876
369.63	3.9
371.13	3.922
372.63	3.943
374.13	3.962
375.63	3.978
377.13	3.99
378.63	3.999
380.13	4.003
381.63	4.003
383.13	3.998
384.63	3.988
386.13	3.975
387.63	3.957
388.076	3.949
389.576	3.92
391.076	3.894
392.576	3.872
394.076	3.854
395.576	3.841
397.076	3.832
398.576	3.828
400.076	3.828
401.576	3.833
403.076	3.84
404.576	3.85
406.076	3.862
407.576	3.875
409.076	3.89
410.576	3.904
412.076	3.918
413.576	3.932
413.865	3.936
415.365	3.958
416.865	3.98
418.365	4.001
419.865	4.021
421.365	4.04
422.865	4.056
424.365	4.07
425.865	4.081
427.365	4.091
428.865	4.098
430.365	4.103
431.865	4.106
433.365	4.108
434.865	4.109
436.365	4.109
437.865	4.107
439.365	4.105
440.865	4.101
442.365	4.096
443.865	4.089
445.365	4.08
446.865	4.068
448.365	4.05
449.865	4.027
451.365	3.997
452.865	3.95
454.365	3.903
455.865	3.848
457.365	3.789
458.865	3.727
460.365	3.663
461.865	3.598
463.365	3.534
464.865	3.472
466.365	3.412
467.865	3.354
469.365	3.3
470.865	3.25
472.365	3.203
473.865	3.159
475.365	3.12
476.865	3.084
478.365	3.052
479.865	3.024
481.365	2.998
482.865	2.976
484.365	2.956
485.865	2.939
487.365	2.924
488.865	2.911
490.365	2.899
491.865	2.889
493.365	2.881
494.865	2.873
496.365	2.866
497.865	2.86
499.365	2.855
500.865	2.85
502.365	2.846
503.865	2.841
505.365	2.837
506.865	2.834
508.365	2.83
509.865	2.827
511.365	2.823
512.865	2.82
514.365	2.816
