Uv/Vis Spectrum: 1,5-Dihydro-[1,3]thiazino[5,4-b]indole-2,4-dithione
Formula: C10H6N2S3
CAS: 69343-96-0
Melting point: 295-296 dec.
Instrument: Specord UV-Vis
Origin: INSTITUTE OF ENERGY PROBLEMS OF CHEMICAL PHYSICS, RAS
Wavelength (nm)	Logarithm epsilon
210	4.401
210.044	4.4
211.544	4.401
213.044	4.396
214.544	4.383
216.044	4.362
217.544	4.333
219.044	4.3
220.544	4.267
222.044	4.238
223.544	4.217
225.044	4.206
226.544	4.206
228.044	4.214
229.338	4.222
230.838	4.233
232.338	4.239
233.838	4.243
235.338	4.244
236.838	4.241
238.338	4.233
239.838	4.217
241.338	4.191
242.341	4.165
243.341	4.146
244.341	4.124
245.341	4.098
246.341	4.073
247.341	4.052
248.341	4.041
249.341	4.044
250.341	4.063
251.149	4.09
252.149	4.118
253.149	4.136
254.149	4.155
255.149	4.179
256.149	4.204
257.149	4.22
258.109	4.209
259.109	4.145
260.109	4.087
261.109	4.049
262.109	4.031
263.109	4.029
264.21	4.034
265.228	4.039
266.406	4.044
267.262	4.05
268.547	4.058
269.51	4.066
270.473	4.072
271.244	4.079
272.244	4.085
273.244	4.093
274.244	4.101
275.244	4.111
276.244	4.121
277.244	4.133
278.244	4.144
279.244	4.157
280.244	4.169
281.244	4.181
282.244	4.194
283.244	4.206
284.244	4.219
285.244	4.231
286.244	4.244
287.244	4.256
288.244	4.27
289.244	4.283
290.244	4.298
291.29	4.311
292.29	4.332
293.29	4.351
294.29	4.37
295.29	4.387
296.29	4.402
297.29	4.417
298.29	4.429
299.29	4.441
300.29	4.451
301.29	4.459
302.29	4.467
303.29	4.472
304.29	4.477
305.29	4.48
306.29	4.482
307.29	4.482
308.29	4.482
309.29	4.48
310.29	4.477
311.29	4.473
312.29	4.468
313.29	4.462
314.29	4.455
315.29	4.447
316.29	4.439
317.29	4.429
318.29	4.419
319.29	4.409
320.29	4.397
321.29	4.385
322.29	4.373
323.29	4.36
324.29	4.347
325.29	4.333
326.29	4.318
327.29	4.304
328.29	4.289
329.29	4.273
330.951	4.244
331.903	4.228
332.856	4.212
333.808	4.197
334.76	4.181
335.713	4.165
335.733	4.164
336.733	4.15
337.733	4.134
338.733	4.117
339.733	4.1
340.733	4.083
341.733	4.066
342.733	4.05
343.733	4.034
344.733	4.02
345.733	4.007
346.733	3.995
347.733	3.985
348.733	3.977
349.733	3.97
350.733	3.965
351.733	3.962
352.733	3.961
353.733	3.962
354.733	3.964
355.733	3.968
356.733	3.973
357.733	3.979
358.733	3.987
359.733	3.994
360.733	4.003
361.733	4.011
361.969	4.013
362.969	4.021
363.969	4.027
364.969	4.032
365.969	4.037
366.969	4.044
367.969	4.052
368.969	4.061
369.969	4.071
370.969	4.081
371.969	4.09
372.969	4.098
373.969	4.105
374.969	4.111
375.969	4.115
376.969	4.118
377.969	4.12
378.969	4.122
379.969	4.124
380.969	4.125
381.969	4.125
382.969	4.123
383.969	4.116
384.969	4.1
385.969	4.068
386.252	4.033
387.252	3.916
388.252	3.81
389.252	3.717
390.252	3.637
391.252	3.569
392.252	3.51
393.252	3.457
394.252	3.409
395.252	3.364
396.252	3.322
397.137	3.292
398.137	3.262
399.137	3.239
400.137	3.222
401.137	3.21
402.137	3.203
403.137	3.199
404.137	3.199
405.137	3.201
406.137	3.205
407.137	3.211
408.137	3.218
409.137	3.226
410.137	3.235
411.137	3.244
412.137	3.254
413.137	3.264
414.137	3.274
415.137	3.285
416.137	3.296
417.137	3.307
418.137	3.319
419.137	3.331
420.137	3.344
421.137	3.357
422.137	3.371
423.137	3.385
424.137	3.4
425.069	3.415
425.832	3.43
426.567	3.441
427.567	3.456
428.567	3.472
429.567	3.49
430.567	3.509
431.567	3.529
432.567	3.549
433.567	3.57
434.567	3.59
435.567	3.611
436.567	3.632
437.567	3.652
438.567	3.672
439.567	3.691
440.567	3.71
441.567	3.729
442.567	3.747
443.567	3.764
444.567	3.781
445.567	3.797
446.567	3.812
447.567	3.827
448.567	3.841
449.567	3.855
450.567	3.868
451.567	3.88
452.567	3.892
453.567	3.904
454.567	3.915
455.567	3.925
456.567	3.936
457.567	3.946
458.567	3.955
459.567	3.964
460.567	3.973
461.567	3.981
462.567	3.989
463.567	3.997
464.567	4.004
465.567	4.012
466.567	4.018
467.567	4.025
468.567	4.031
469.567	4.036
470.567	4.042
471.567	4.047
472.567	4.051
473.567	4.055
474.567	4.058
475.567	4.061
476.567	4.064
477.567	4.065
478.567	4.067
479.567	4.067
480.567	4.067
481.567	4.066
482.567	4.064
483.567	4.062
484.567	4.058
485.567	4.054
486.567	4.049
487.567	4.043
488.567	4.036
489.567	4.028
490.567	4.02
491.567	4.01
492.567	4
493.567	3.988
494.567	3.976
495.567	3.962
496.567	3.948
497.567	3.933
498.567	3.917
499.567	3.9
500.567	3.882
501.567	3.864
502.567	3.845
503.567	3.826
504.567	3.806
505.567	3.785
506.567	3.764
507.567	3.743
508.567	3.722
509.567	3.7
510.567	3.679
511.567	3.657
512.567	3.636
513.567	3.614
514.567	3.594
515.567	3.573
516.567	3.553
517.567	3.534
518.567	3.515
519.567	3.497
520.567	3.48
521.567	3.464
522.567	3.448
523.567	3.433
524.567	3.419
525.567	3.406
526.567	3.394
527.567	3.382
528.567	3.371
529.567	3.361
530.567	3.351
531.567	3.341
532.567	3.33
533.567	3.32
534.567	3.308
535.567	3.295
