Uv/Vis Spectrum: (2-methylphenyl)-2-thienylmethanone
Formula: C12H10OS
CAS: 6933-35-3
Boiling point: 124/0.17 mm
Instrument: unknown
Origin: INSTITUTE OF ENERGY PROBLEMS OF CHEMICAL PHYSICS, RAS
Wavelength (nm)	Logarithm epsilon
210.168	4.359
211.668	4.309
213.168	4.217
214.49	4.043
215.038	3.993
217.038	3.846
219.038	3.767
221.038	3.735
223.038	3.721
225.038	3.703
226.99	3.68
227.061	3.679
229.061	3.656
231.061	3.648
232.878	3.666
234.844	3.718
236.844	3.778
238.844	3.828
240.844	3.866
242.844	3.894
244.844	3.919
246.844	3.947
248.844	3.976
250.346	3.995
251.442	4.015
252.442	4.038
253.39	4.062
254.063	4.094
254.417	4.116
255.125	4.137
256.39	4.148
257.89	4.153
259.373	4.16
260.789	4.166
262.034	4.139
263.534	4.121
265.034	4.107
266.534	4.098
268.034	4.09
269.534	4.084
271.034	4.08
272.534	4.077
274.034	4.076
275.534	4.077
277.034	4.08
278.534	4.085
280.034	4.093
281.534	4.101
282.925	4.11
284.425	4.111
285.925	4.112
287.425	4.11
288.925	4.102
290.425	4.087
291.925	4.063
293.425	4.029
294.925	3.985
296.425	3.93
297.925	3.863
299.425	3.784
300.114	3.73
301.027	3.651
302.614	3.511
304.114	3.34
305.614	3.163
307.114	2.983
