Uv/Vis Spectrum: Pyridine, 1-oxide
Formula: C5H5NO
CAS: 694-59-7
Melting point: 65.5
Boiling point: 146-7(13)
Instrument: Zeiss PMQ II
Origin: INSTITUTE OF ENERGY PROBLEMS OF CHEMICAL PHYSICS, RAS
Wavelength (nm)	Logarithm epsilon
350.032	1.09612
349.529	1.12159
347.482	1.565
347.081	1.66904
344.312	2.1232
343.88	2.1952
343.64	2.19751
343.208	2.26748
340.738	2.72161
340.415	2.85311
340.15	2.85543
339.789	2.95285
339.522	2.95288
339.056	2.95927
338.316	2.9573
337.814	2.95531
337.56	2.9383
337.043	2.9213
336.754	2.8725
336.225	2.84305
335.956	2.81103
335.449	2.79836
334.253	2.78575
333.539	2.7881
333.294	2.79855
333.065	2.79857
332.847	2.80724
332.833	2.79453
332.581	2.79862
332.392	2.83271
331.962	2.87928
331.738	2.88159
331.316	2.93453
331.091	2.93455
330.68	2.99612
330.458	2.99818
330.269	3.03024
330.028	3.04068
329.82	3.05571
329.8	3.03664
329.39	3.09593
329.169	3.09798
328.747	3.14481
328.525	3.14483
328.098	3.18505
327.877	3.18507
327.458	3.20647
327.212	3.20853
326.791	3.2256
326.544	3.22563
326.118	3.23635
325.872	3.23637
324.98	3.24281
324.763	3.24283
322.506	3.24711
321.418	3.25154
320.973	3.25794
320.532	3.26637
320.115	3.27074
319.698	3.30053
319.49	3.30259
319.071	3.32806
318.864	3.33037
318.449	3.35787
318.242	3.35993
317.816	3.37497
317.61	3.37703
317.181	3.38775
316.974	3.38777
316.54	3.39213
315.906	3.40059
315.268	3.40269
314.864	3.40705
314.634	3.40707
314.232	3.41144
313.803	3.41351
313.38	3.41991
312.978	3.42199
311.939	3.4371
311.321	3.44352
310.931	3.45195
310.708	3.45197
310.105	3.46907
309.907	3.46909
309.111	3.48621
308.89	3.48624
308.101	3.50539
307.908	3.50745
307.506	3.5202
307.312	3.52022
306.912	3.53298
306.718	3.533
306.322	3.54779
306.131	3.5501
305.736	3.56489
305.544	3.56491
305.148	3.57767
304.959	3.57998
304.567	3.59477
304.378	3.59682
303.99	3.6139
303.8	3.61392
303.413	3.631
303.226	3.63306
302.838	3.64785
302.652	3.65016
302.268	3.66724
302.08	3.66726
301.699	3.68637
301.514	3.68843
301.135	3.70754
300.948	3.70756
300.572	3.72871
300.387	3.72873
300.012	3.75013
299.827	3.75015
299.475	3.76926
299.269	3.77132
298.919	3.79043
298.714	3.79274
298.367	3.81389
298.163	3.81594
297.818	3.83938
297.615	3.84169
297.27	3.86283
297.066	3.86286
296.728	3.89036
296.526	3.89267
296.184	3.91382
295.983	3.91587
295.642	3.93727
295.442	3.93933
295.104	3.96276
294.902	3.96279
294.563	3.98393
294.365	3.98624
294.027	4.00739
293.829	4.00945
293.318	4.0329
293.119	4.03292
292.781	4.05
292.582	4.05002
292.245	4.0671
292.05	4.06916
291.714	4.08624
291.517	4.08626
291.179	4.09901
290.985	4.10107
290.65	4.11611
290.284	4.12022
289.76	4.13936
289.587	4.13938
289.232	4.15214
289.06	4.15216
288.705	4.16288
288.533	4.1629
288.181	4.17566
288.01	4.17568
287.655	4.18411
287.485	4.18413
287.131	4.19282
286.608	4.19924
286.439	4.19926
285.918	4.20568
285.043	4.21214
284.357	4.21426
283.842	4.21865
281.276	4.21897
280.767	4.217
279.754	4.2128
279.25	4.21083
279.087	4.20653
278.585	4.2043
278.243	4.20028
277.922	4.19599
277.581	4.19172
277.242	4.18769
276.923	4.18341
276.426	4.17711
276.265	4.17281
275.771	4.16652
275.436	4.16249
275.101	4.15822
274.942	4.15391
274.451	4.14558
274.293	4.14128
273.961	4.13726
273.804	4.13295
273.316	4.12463
273.14	4.12033
272.829	4.11401
272.654	4.10971
272.344	4.1034
272.012	4.09276
271.686	4.08873
271.529	4.0824
271.048	4.07178
270.893	4.06545
270.568	4.05913
270.411	4.05076
270.089	4.04648
269.933	4.03811
269.61	4.0318
269.454	4.02317
268.829	4.00851
268.657	4.00217
268.357	3.99789
268.185	3.98952
267.885	3.98321
267.712	3.97459
267.413	3.96827
267.242	3.9599
266.942	3.95155
266.77	3.94089
266.471	3.93229
266.3	3.92189
266.005	3.91761
265.832	3.90491
265.536	3.89656
265.384	3.88591
265.07	3.87756
264.918	3.8669
264.604	3.85626
264.453	3.84586
264.142	3.83725
263.989	3.82456
263.679	3.81621
263.527	3.80352
263.22	3.79721
263.068	3.78451
262.76	3.77591
262.609	3.76322
262.303	3.75487
262.152	3.74218
261.846	3.73357
261.697	3.72088
261.392	3.71253
261.244	3.70187
260.94	3.69353
260.793	3.68287
260.49	3.67452
260.342	3.66182
260.04	3.65322
259.894	3.64282
259.593	3.63422
259.446	3.62152
259.147	3.61318
259	3.60048
258.702	3.59213
258.557	3.58147
258.259	3.57313
258.113	3.56018
257.817	3.55183
257.673	3.54117
257.376	3.53079
257.233	3.52013
256.937	3.50949
256.797	3.50316
256.501	3.49049
256.358	3.47983
256.066	3.47148
255.923	3.45879
255.633	3.45247
255.49	3.43978
255.216	3.43143
255.057	3.41874
254.786	3.41242
254.627	3.39973
254.355	3.39113
254.199	3.38047
253.928	3.37212
253.77	3.35943
253.5	3.35108
253.343	3.33839
253.074	3.32978
252.919	3.31938
252.651	3.31078
252.496	3.30037
252.229	3.29177
252.074	3.27908
251.807	3.27073
251.654	3.26007
251.389	3.25375
251.237	3.2431
250.693	3.22843
250.552	3.20938
250.273	3.20307
250.137	3.19038
249.858	3.18178
249.722	3.16908
249.445	3.16277
249.312	3.1544
249.036	3.14605
248.9	3.13336
248.626	3.12704
248.491	3.11409
248.216	3.10575
248.083	3.09509
247.809	3.08674
247.674	3.07405
247.401	3.0657
247.268	3.05301
246.996	3.0444
246.864	3.034
246.592	3.0254
246.331	3.00637
246.061	2.99802
245.93	2.98736
245.662	2.98104
245.53	2.96835
245.263	2.96204
245.134	2.95367
244.867	2.94507
244.737	2.93441
244.47	2.92606
244.341	2.9154
244.078	2.91137
243.948	2.89868
243.684	2.89237
243.557	2.88374
243.293	2.87539
243.166	2.86702
242.905	2.86071
242.777	2.85005
242.516	2.84374
242.388	2.83308
242.129	2.8288
242.005	2.82246
241.744	2.81411
241.619	2.80574
241.377	2.80146
241.237	2.79309
240.993	2.78449
240.855	2.77815
