Uv/Vis Spectrum: 5-Methylenebicyclo[2.2.1]-2-heptene
Formula: C8H10
CAS: 694-91-7
Boiling point: 55/ 78 mm
Instrument: unknown
Origin: INSTITUTE OF ENERGY PROBLEMS OF CHEMICAL PHYSICS, RAS
Wavelength (nm)	Logarithm epsilon
190.896	4.1
192.096	4.101
193.296	4.096
194.496	4.091
195.696	4.086
196.896	4.083
198.096	4.081
199.296	4.079
200.496	4.076
201.696	4.072
202.896	4.067
204.096	4.06
205.296	4.054
206.496	4.047
207.696	4.042
208.896	4.037
210.096	4.032
211.296	4.027
212.496	4.02
213.696	4.007
214.896	3.987
216.096	3.955
217.296	3.909
218.496	3.846
219.696	3.766
220.896	3.67
222.096	3.562
223.296	3.448
224.496	3.338
225.696	3.242
226.896	3.173
228.096	3.139
228.507	3.137
