Uv/Vis Spectrum: Cyclohexane,1-chloro-1-nitroso-
Formula: C6H10ClNO
CAS: 695-64-7
Instrument: n.i.g.
Origin: INSTITUTE OF ENERGY PROBLEMS OF CHEMICAL PHYSICS, RAS
Wavelength (nm)	Logarithm epsilon
600.34	1.016
600.57	1.017
600.81	1.018
601.05	1.019
601.28	1.02
601.52	1.021
601.76	1.023
601.99	1.024
602.23	1.025
602.47	1.026
603.18	1.03
604.12	1.036
605.07	1.044
606.01	1.05
606.96	1.054
607.91	1.052
608.85	1.053
609.8	1.055
610.74	1.057
611.69	1.057
612.64	1.06
613.58	1.062
615.47	1.065
616.42	1.07
617.36	1.071
618.31	1.074
619.26	1.077
620.2	1.083
621.15	1.088
622.09	1.094
623.04	1.103
623.99	1.11
624.93	1.122
625.88	1.133
626.82	1.143
627.77	1.153
628.72	1.168
629.66	1.178
630.61	1.19
631.55	1.202
632.5	1.211
633.45	1.222
634.39	1.231
635.34	1.24
636.28	1.253
637.23	1.262
638.18	1.269
639.12	1.277
640.07	1.285
641.01	1.294
641.96	1.302
642.91	1.311
643.85	1.321
644.8	1.328
645.74	1.334
646.69	1.338
647.64	1.343
649.53	1.344
650.47	1.345
651.42	1.345
652.36	1.344
653.31	1.343
654.26	1.341
655.2	1.336
656.15	1.333
657.09	1.325
658.04	1.316
658.99	1.31
659.93	1.301
660.88	1.292
661.82	1.283
662.77	1.274
663.72	1.266
664.66	1.255
665.61	1.245
666.55	1.234
667.5	1.224
668.45	1.213
669.39	1.203
670.34	1.194
671.28	1.184
672.23	1.173
673.18	1.16
674.12	1.155
675.07	1.135
676.01	1.12
676.96	1.107
677.91	1.093
678.85	1.079
679.8	1.065
680.74	1.052
681.69	1.04
682.64	1.033
683.58	1.017
684.53	1.007
685.47	0.993
686.42	0.982
687.36	0.972
688.31	0.961
689.26	0.949
690.2	0.938
691.15	0.937
