Uv/Vis Spectrum: Pyrimidine, 2,4,6-trifluoro-
Formula: C4HF3N2
CAS: 696-82-2
Boiling point: 98.5-99
Instrument: SF-16
Origin: INSTITUTE OF ENERGY PROBLEMS OF CHEMICAL PHYSICS, RAS
Wavelength (nm)	Logarithm epsilon
208.75	3.032
209.24	2.994
210.21	2.962
211.18	2.929
212.16	2.924
213.13	2.919
214.1	2.924
215.08	2.933
216.05	2.952
217.02	2.971
217.99	2.999
218.97	3.032
219.94	3.046
220.91	3.088
221.88	3.125
222.86	3.149
223.83	3.177
224.8	3.21
225.77	3.238
226.75	3.285
227.72	3.308
228.69	3.336
229.66	3.355
230.64	3.374
231.61	3.383
232.58	3.392
233.55	3.388
234.53	3.378
235.5	3.364
236.47	3.336
237.45	3.28
238.42	3.21
239.39	3.135
240.36	2.98
241.34	2.901
242.31	2.84
243.28	2.732
244.25	2.563
