Uv/Vis Spectrum: 6-(Dimethylaminofulvene
Formula: C8H11N
CAS: 696-68-4
Melting point: 67-68
Instrument: Perkin-Elmer 137 UV
Origin: INSTITUTE OF ENERGY PROBLEMS OF CHEMICAL PHYSICS, RAS
Wavelength (nm)	Logarithm epsilon
200.38	2.762
200.38	2.781
200.47	2.8
200.55	2.819
200.64	2.838
200.73	2.857
200.81	2.877
200.9	2.896
200.99	2.915
200.99	2.934
201.16	2.953
201.25	2.973
201.34	2.992
201.42	3.011
201.51	3.03
201.6	3.049
201.77	3.069
201.86	3.088
201.95	3.107
202.03	3.126
202.12	3.145
202.21	3.164
202.39	3.184
202.47	3.203
202.56	3.222
202.74	3.241
202.83	3.26
203	3.28
203.09	3.299
203.27	3.318
203.45	3.337
203.72	3.356
203.98	3.376
204.25	3.395
204.52	3.414
204.79	3.433
205.06	3.452
205.52	3.469
205.88	3.486
206.24	3.503
206.7	3.52
207.16	3.538
207.63	3.555
208.18	3.57
208.65	3.587
209.31	3.599
209.97	3.612
210.63	3.623
211.4	3.631
212.17	3.642
212.95	3.648
213.83	3.653
214.62	3.659
215.51	3.663
216.32	3.67
217.22	3.672
218.14	3.674
218.96	3.68
219.89	3.68
220.83	3.68
221.78	3.678
222.74	3.672
223.59	3.661
224.35	3.651
224.89	3.633
225.44	3.619
225.87	3.602
226.42	3.587
226.76	3.57
227.09	3.552
227.53	3.535
227.98	3.518
228.43	3.501
228.88	3.484
229.21	3.467
229.67	3.45
230.23	3.433
230.58	3.416
231.15	3.401
231.61	3.384
232.07	3.367
232.65	3.352
233.12	3.335
233.7	3.32
234.29	3.303
234.88	3.288
235.48	3.271
236.08	3.256
236.68	3.239
237.28	3.224
238.01	3.209
238.62	3.192
239.36	3.177
239.97	3.162
240.72	3.147
241.34	3.13
242.1	3.115
242.73	3.098
243.36	3.083
244	3.069
244.77	3.054
245.42	3.037
246.07	3.022
246.72	3.007
247.38	2.992
248.04	2.977
248.83	2.962
249.5	2.947
250.17	2.932
250.84	2.917
251.66	2.902
252.34	2.885
253.17	2.87
253.86	2.855
254.69	2.84
255.39	2.826
256.23	2.811
257.08	2.796
257.8	2.781
258.66	2.768
259.67	2.757
260.83	2.749
262.15	2.755
263.19	2.766
264.09	2.779
264.84	2.794
265.6	2.811
266.21	2.828
266.82	2.845
267.28	2.864
267.74	2.883
268.2	2.902
268.67	2.921
269.29	2.939
269.76	2.958
270.23	2.977
270.7	2.996
271.17	3.015
271.49	3.034
271.96	3.051
272.44	3.071
272.92	3.09
273.4	3.109
273.72	3.128
274.21	3.147
274.53	3.167
275.02	3.186
275.51	3.205
275.83	3.224
276.33	3.243
276.66	3.263
277.15	3.282
277.48	3.301
277.98	3.32
278.31	3.339
278.81	3.358
279.15	3.378
279.65	3.397
280.15	3.416
280.49	3.435
280.83	3.454
281.17	3.474
281.68	3.493
282.19	3.512
282.54	3.531
282.88	3.55
283.22	3.57
283.74	3.589
284.26	3.608
284.61	3.627
285.13	3.646
285.48	3.665
286.01	3.685
286.36	3.704
286.54	3.723
287.07	3.742
287.42	3.761
287.96	3.781
288.32	3.8
288.85	3.819
289.21	3.838
289.75	3.857
290.11	3.877
290.66	3.896
291.02	3.915
291.39	3.934
291.93	3.953
292.3	3.972
292.85	3.992
293.22	4.011
293.78	4.03
294.34	4.049
294.71	4.068
295.27	4.088
295.83	4.107
296.4	4.126
296.97	4.145
297.54	4.164
298.11	4.184
298.68	4.203
299.26	4.222
299.84	4.239
300.42	4.258
301.2	4.275
301.78	4.294
302.37	4.311
303.16	4.328
303.75	4.346
304.55	4.363
305.35	4.38
305.95	4.397
306.96	4.414
307.77	4.431
308.8	4.448
309.62	4.465
310.65	4.48
311.69	4.495
312.74	4.51
314.01	4.525
315.28	4.537
316.79	4.548
318.52	4.559
320.5	4.563
322.5	4.559
324.3	4.552
325.89	4.542
327.26	4.529
328.65	4.514
329.81	4.499
330.75	4.482
331.46	4.465
332.17	4.448
332.88	4.431
333.36	4.412
334.08	4.395
334.56	4.375
335.04	4.356
335.52	4.337
336.01	4.318
336.49	4.299
336.74	4.279
337.23	4.26
337.47	4.241
337.96	4.222
338.21	4.203
338.7	4.184
339.19	4.164
339.44	4.145
339.69	4.126
340.19	4.107
340.68	4.088
340.93	4.068
341.43	4.049
341.94	4.03
342.19	4.011
342.5	3.992
342.94	3.972
343.42	3.951
343.79	3.934
344.15	3.916
344.6	3.897
344.98	3.877
345.49	3.857
345.96	3.836
346.36	3.819
346.84	3.799
347.36	3.781
347.87	3.762
348.46	3.743
349.12	3.723
349.65	3.704
350.17	3.685
350.7	3.665
351.23	3.646
351.76	3.627
352.56	3.61
353.1	3.591
353.63	3.572
354.44	3.552
354.98	3.533
355.53	3.514
356.34	3.497
357.16	3.478
357.99	3.459
358.54	3.439
359.37	3.422
360.21	3.405
360.77	3.386
361.61	3.367
362.17	3.348
363.02	3.331
363.87	3.314
364.73	3.295
365.3	3.275
366.16	3.258
367.03	3.241
367.9	3.222
368.48	3.203
369.36	3.184
370.24	3.167
371.13	3.147
371.72	3.128
372.61	3.111
373.21	3.092
374.11	3.075
375.02	3.058
375.62	3.039
376.54	3.02
377.15	3
378.07	2.983
378.99	2.964
379.92	2.945
380.54	2.926
381.48	2.909
382.42	2.889
383.36	2.87
384.31	2.853
385.27	2.834
385.91	2.815
386.87	2.798
387.84	2.781
