Uv/Vis Spectrum: 4-Isopropylpyridine
Formula: C8H11N
CAS: 696-30-0
Melting point: -54.9
Boiling point: 178
Instrument: Beckman DU
Origin: INSTITUTE OF ENERGY PROBLEMS OF CHEMICAL PHYSICS, RAS
Wavelength (nm)	Logarithm epsilon
232.551	3.88459
233.175	3.89465
233.741	3.90524
234.251	3.91578
234.709	3.92569
235.111	3.93323
235.382	3.938
235.586	3.94179
235.769	3.94729
236.042	3.95246
236.256	3.95678
236.477	3.96103
236.701	3.96517
236.842	3.97205
236.922	3.97397
237.006	3.97585
237.098	3.97765
237.894	3.99909
238.022	4.00256
238.154	4.00601
238.292	4.00942
239.09	4.02834
239.09	4.02766
239.091	4.02691
239.092	4.02613
239.488	4.03801
239.759	4.04888
239.96	4.05596
240.189	4.06254
240.544	4.0717
240.947	4.07664
241.025	4.07988
241.108	4.08308
241.197	4.0862
241.86	4.10484
241.862	4.10364
241.863	4.10243
241.865	4.10123
242.262	4.11028
242.297	4.1121
242.339	4.1139
242.385	4.11563
243.184	4.1297
243.267	4.13227
243.357	4.13482
243.451	4.13736
244.38	4.15144
244.427	4.15259
244.475	4.15369
244.522	4.15477
245.105	4.16951
245.12	4.17072
245.139	4.17191
245.165	4.17306
246.021	4.19027
246.206	4.19426
246.395	4.19838
246.644	4.20491
247.009	4.21596
247.264	4.22025
247.311	4.22117
247.359	4.22209
247.406	4.223
247.715	4.2336
247.735	4.23441
247.762	4.2352
247.793	4.23595
248.192	4.24101
248.229	4.24157
248.273	4.24213
248.32	4.24269
251.545	4.26757
251.627	4.26787
251.713	4.26818
251.805	4.26848
252.14	4.27318
252.41	4.27581
252.725	4.27942
252.875	4.28207
253.266	4.29105
253.267	4.29026
253.269	4.28948
253.27	4.2887
254.057	4.30394
254.092	4.3053
254.134	4.30663
254.18	4.30793
255.109	4.31695
255.261	4.31689
255.421	4.31681
255.584	4.3167
257.073	4.29296
257.112	4.29197
257.159	4.29098
257.21	4.28999
257.516	4.27553
257.517	4.27514
257.518	4.27472
257.519	4.27428
257.532	4.26751
257.544	4.26124
257.555	4.25486
257.567	4.24836
257.577	4.24308
257.619	4.24045
257.669	4.2378
257.722	4.23508
257.729	4.23103
257.89	4.22903
258.001	4.22601
258.159	4.21932
258.313	4.21511
258.469	4.21077
258.596	4.20847
258.802	4.20625
259.421	4.19792
259.439	4.1971
259.461	4.19624
259.491	4.19536
260.385	4.18827
260.453	4.18692
260.525	4.18554
260.604	4.18412
260.801	4.18377
260.888	4.18377
260.982	4.18378
261.079	4.18378
