Uv/Vis Spectrum: 2-methyl-5-(3-nitrophenyl)-1H-tetrazole
Formula: C8H7N5O2
CAS: 69790-73-4
Melting point: 174-175
Instrument: SF-26
Origin: INSTITUTE OF ENERGY PROBLEMS OF CHEMICAL PHYSICS, RAS
Wavelength (nm)	Logarithm epsilon
202.819	4.022
203.819	4.023
204.819	4.029
205.819	4.04
206.819	4.054
207.819	4.071
208.819	4.089
209.819	4.108
210.819	4.128
211.819	4.148
212.819	4.168
213.819	4.187
214.819	4.206
215.819	4.224
216.819	4.241
217.819	4.257
218.819	4.273
219.819	4.287
220.819	4.301
221.819	4.313
222.819	4.324
223.819	4.334
224.794	4.343
225.794	4.348
226.794	4.352
227.794	4.354
228.794	4.354
229.794	4.353
230.794	4.35
231.794	4.346
232.794	4.341
233.794	4.333
234.794	4.325
235.794	4.315
236.794	4.303
237.794	4.29
238.794	4.276
239.794	4.26
240.794	4.243
241.794	4.225
242.794	4.206
243.794	4.186
244.794	4.165
245.794	4.144
246.794	4.123
247.794	4.101
248.794	4.08
249.794	4.06
250.794	4.04
251.794	4.021
252.794	4.003
253.794	3.986
254.794	3.971
255.794	3.957
256.794	3.944
257.794	3.933
258.794	3.923
259.794	3.913
260.794	3.904
261.794	3.894
262.794	3.882
263.794	3.867
