Uv/Vis Spectrum: (E)-2-[2-(2-furanyl)-1-nitroethenyl]-5-nitrofuran
Formula: C10H6N2O6
CAS: 69724-80-7
Melting point: 116-117
Instrument: Specord UV-Vis
Origin: INSTITUTE OF ENERGY PROBLEMS OF CHEMICAL PHYSICS, RAS
Wavelength (nm)	Logarithm epsilon
226.181	3.964
226.424	3.964
228.424	3.968
230.424	3.973
232.424	3.978
234.424	3.982
236.424	3.985
238.424	3.987
240.424	3.986
242.424	3.984
244.424	3.98
246.424	3.974
248.424	3.967
250.424	3.96
252.424	3.952
254.424	3.945
254.43	3.946
256.43	3.937
258.43	3.927
260.43	3.918
262.43	3.909
264.43	3.901
266.43	3.895
268.43	3.892
270.43	3.892
272.43	3.896
274.43	3.903
276.241	3.914
278.241	3.931
280.241	3.947
282.241	3.964
284.241	3.981
286.241	3.997
288.241	4.013
290.241	4.028
292.241	4.044
294.241	4.058
296.241	4.073
298.241	4.087
300.241	4.1
302.241	4.112
304.241	4.124
306.241	4.135
308.241	4.146
309.947	4.152
311.947	4.164
313.947	4.173
315.947	4.181
317.947	4.187
319.947	4.191
321.947	4.193
323.947	4.193
325.947	4.191
327.947	4.188
328.287	4.187
330.287	4.181
332.287	4.179
334.287	4.179
336.287	4.181
338.287	4.186
340.287	4.193
342.287	4.202
344.287	4.214
344.893	4.217
346.893	4.23
348.893	4.241
350.893	4.25
352.893	4.256
354.893	4.26
356.893	4.261
358.893	4.259
360.893	4.254
362.154	4.249
363.356	4.243
365.356	4.233
367.356	4.221
369.356	4.209
371.356	4.196
373.356	4.181
375.356	4.167
377.356	4.151
379.356	4.134
381.356	4.117
383.356	4.1
385.356	4.082
387.356	4.063
389.356	4.044
391.356	4.025
393.356	4.005
395.356	3.985
397.356	3.965
399.356	3.944
401.356	3.924
403.356	3.903
405.356	3.883
407.356	3.863
409.356	3.842
