Uv/Vis Spectrum: Phenol, 2,3,5-trimethyl-
Formula: C9H12O
CAS: 697-82-5
Melting point: 95-96
Boiling point: 233
Instrument: unknown
Origin: INSTITUTE OF ENERGY PROBLEMS OF CHEMICAL PHYSICS, RAS
Wavelength (nm)	Logarithm epsilon
226.45	3.786
226.61	3.777
226.78	3.773
226.94	3.765
227.11	3.757
227.27	3.753
227.44	3.744
227.6	3.736
227.77	3.732
228.26	3.703
228.76	3.679
229.26	3.654
229.75	3.625
230.25	3.6
230.74	3.563
231.24	3.522
231.73	3.489
232.23	3.444
232.73	3.402
233.22	3.361
233.72	3.308
234.21	3.254
234.71	3.205
235.21	3.134
235.7	3.073
236.2	3.015
236.69	2.97
237.19	2.912
237.68	2.842
238.18	2.776
238.68	2.71
239.17	2.636
239.67	2.557
240.16	2.479
240.66	2.384
241.15	2.335
241.65	2.29
242.15	2.257
242.64	2.215
243.14	2.195
243.63	2.178
244.13	2.166
244.63	2.162
245.12	2.158
245.62	2.162
246.11	2.17
246.61	2.178
247.1	2.191
247.6	2.199
248.1	2.21
248.59	2.22
249.08	2.228
249.59	2.236
250.08	2.244
250.58	2.257
251.07	2.273
251.57	2.29
252.06	2.306
252.56	2.318
253.05	2.339
253.55	2.351
254.05	2.372
254.54	2.393
255.04	2.405
255.53	2.421
256.03	2.446
256.53	2.467
257.02	2.487
257.52	2.512
258.01	2.537
258.51	2.557
259	2.578
259.5	2.599
260	2.615
260.49	2.64
260.99	2.661
261.48	2.681
261.98	2.706
262.47	2.731
262.97	2.755
263.47	2.78
263.96	2.801
264.46	2.821
264.95	2.842
265.45	2.862
265.95	2.883
266.44	2.904
266.94	2.928
267.43	2.949
267.93	2.974
268.42	3.007
268.92	3.023
269.42	3.044
269.91	3.064
270.41	3.085
270.9	3.11
271.4	3.139
271.9	3.155
272.39	3.163
272.89	3.159
273.38	3.155
273.88	3.139
274.37	3.13
274.87	3.126
275.37	3.134
275.86	3.143
276.36	3.159
276.85	3.172
277.35	3.176
277.85	3.172
278.34	3.163
278.84	3.151
279.33	3.143
279.83	3.143
280.32	3.155
280.82	3.167
281.32	3.205
281.81	3.209
282.31	3.2
282.8	3.143
283.34	3.041
283.79	2.937
284.29	2.805
284.79	2.685
285.28	2.578
285.78	2.479
286.27	2.393
286.77	2.318
287.17	2.246
287.76	2.166
288.26	2.1
288.75	2.038
289.25	1.976
289.74	1.923
290.24	1.882
290.74	1.836
