Uv/Vis Spectrum: 4,5-Tetramethylene-1,3-dithiol-2-thione
Formula: C7H8S3
CAS: 698-42-0
Melting point: 82
Instrument: Spektromom 201
Origin: INSTITUTE OF ENERGY PROBLEMS OF CHEMICAL PHYSICS, RAS
Wavelength (nm)	Logarithm epsilon
211.18	3.62
212.1	3.56
212.87	3.504
213.89	3.429
214.91	3.361
215.92	3.313
216.94	3.293
217.96	3.293
218.97	3.303
219.99	3.316
221	3.337
222.02	3.367
223.04	3.402
224.05	3.432
225.07	3.47
226.09	3.514
227.1	3.552
228.12	3.599
229.14	3.644
230.15	3.688
231.17	3.736
232.18	3.794
233.2	3.882
234.22	3.926
235.23	3.947
236.25	3.964
237.27	3.964
238.28	3.947
239.3	3.916
240.32	3.865
241.33	3.821
242.35	3.766
243.36	3.698
244.38	3.616
245.4	3.545
246.41	3.47
247.43	3.398
248.45	3.327
249.46	3.275
250.48	3.241
251.5	3.211
252.51	3.177
253.53	3.139
254.54	3.108
255.56	3.102
256.58	3.105
257.59	3.108
258.61	3.112
259.63	3.126
260.64	3.139
261.66	3.146
262.68	3.163
263.69	3.18
264.71	3.197
265.72	3.211
266.74	3.228
267.76	3.241
268.77	3.248
269.79	3.262
270.81	3.265
271.82	3.275
272.84	3.279
273.86	3.279
274.87	3.279
275.89	3.272
276.9	3.262
277.92	3.248
278.94	3.231
279.95	3.211
280.97	3.19
281.99	3.16
283	3.129
284.02	3.095
285.04	3.061
286.05	3.023
287.07	2.986
288.08	2.938
289.1	2.901
290.12	2.866
291.13	2.846
292.15	2.819
293.17	2.795
294.18	2.774
295.2	2.754
296.21	2.74
297.23	2.727
298.25	2.72
299.26	2.706
300.28	2.703
301.3	2.703
302.31	2.703
303.33	2.703
304.35	2.703
305.36	2.703
306.38	2.703
307.39	2.699
308.41	2.693
309.43	2.689
310.44	2.689
311.46	2.686
312.48	2.676
313.49	2.672
314.51	2.665
315.53	2.659
316.54	2.655
317.56	2.655
318.57	2.655
319.59	2.655
320.61	2.665
321.62	2.672
322.64	2.676
323.66	2.689
324.67	2.713
325.69	2.737
326.71	2.761
327.72	2.795
328.74	2.832
329.75	2.88
330.77	2.918
331.79	2.959
332.8	3.003
333.82	3.04
334.84	3.078
335.85	3.126
336.87	3.17
337.89	3.228
338.9	3.258
339.92	3.299
340.93	3.344
341.95	3.385
342.97	3.432
343.98	3.466
345	3.504
346.02	3.538
347.03	3.582
348.05	3.62
349.07	3.654
350.08	3.688
351.1	3.729
352.11	3.756
353.13	3.787
354.15	3.821
355.16	3.851
356.18	3.886
357.2	3.909
358.21	3.937
359.23	3.957
360.25	3.991
361.26	4.022
362.28	4.025
363.29	4.053
364.31	4.073
365.33	4.093
366.34	4.1
367.36	4.117
368.38	4.128
369.39	4.141
370.41	4.151
371.43	4.158
372.44	4.162
373.46	4.172
374.47	4.179
375.49	4.179
376.51	4.179
377.52	4.175
378.54	4.175
379.56	4.168
380.57	4.162
381.59	4.162
382.61	4.158
383.62	4.151
384.64	4.138
385.65	4.11
386.67	4.073
387.69	4.012
388.7	3.913
389.72	3.828
390.74	3.729
391.75	3.637
392.77	3.538
393.79	3.439
394.8	3.34
395.82	3.235
396.83	3.146
397.85	3.044
398.87	2.952
399.88	2.86
400.9	2.771
401.92	2.679
402.93	2.604
403.95	2.532
404.97	2.464
405.98	2.396
407	2.342
408.01	2.291
409.03	2.243
410.05	2.205
411.06	2.168
412.08	2.134
413.1	2.103
414.11	2.079
415.13	2.049
416.14	2.031
417.16	2.011
418.18	1.997
419.19	1.984
420.21	1.977
421.23	1.967
422.24	1.963
423.26	1.96
424.28	1.96
425.29	1.957
426.31	1.953
427.29	1.951
428.34	1.95
429.36	1.95
430.37	1.95
431.39	1.95
432.46	1.949
433.42	1.946
434.49	1.943
435.48	1.939
436.57	1.934
437.49	1.929
438.61	1.923
439.52	1.916
440.54	1.909
441.42	1.901
442.31	1.893
443.59	1.882
444.45	1.874
445.62	1.864
446.59	1.855
447.65	1.844
448.67	1.835
449.68	1.824
450.7	1.81
451.72	1.793
452.73	1.776
453.75	1.759
454.77	1.742
455.78	1.715
456.8	1.694
457.82	1.674
458.83	1.646
459.85	1.616
460.86	1.595
461.88	1.565
462.9	1.53
463.91	1.496
464.93	1.462
465.95	1.418
466.96	1.381
467.98	1.34
469	1.295
470.01	1.248
471.03	1.21
