Uv/Vis Spectrum: Pentamethylbenzene
Formula: C11H16
CAS: 700-12-9
Melting point: 54.5
Boiling point: 232
Instrument: unknown
Origin: INSTITUTE OF ENERGY PROBLEMS OF CHEMICAL PHYSICS, RAS
Wavelength (nm)	Logarithm epsilon
235.78	2.145
235.82	2.133
235.91	2.12
235.99	2.108
236.03	2.095
236.12	2.081
236.16	2.067
236.25	2.053
236.29	2.038
236.37	2.023
236.46	2.007
236.54	1.99
236.59	1.973
236.67	1.955
236.8	1.939
236.88	1.919
236.97	1.899
237.05	1.878
237.18	1.858
237.31	1.837
237.44	1.815
237.61	1.792
237.78	1.768
237.95	1.742
238.16	1.719
238.41	1.697
238.63	1.671
238.88	1.647
239.18	1.625
239.52	1.603
239.86	1.589
240.2	1.575
240.59	1.567
240.96	1.563
241.34	1.561
241.73	1.56
242.08	1.563
242.54	1.571
242.92	1.579
243.29	1.59
243.64	1.599
244	1.609
244.36	1.621
244.75	1.634
245.09	1.647
245.43	1.663
245.77	1.675
246.11	1.686
246.45	1.701
246.79	1.72
247.13	1.732
247.47	1.749
247.81	1.762
248.15	1.777
248.49	1.792
248.83	1.807
249.17	1.821
249.46	1.835
249.76	1.848
250.06	1.863
250.35	1.875
250.65	1.89
250.95	1.904
251.25	1.915
251.5	1.928
251.8	1.939
252.1	1.951
252.35	1.963
252.61	1.977
252.86	1.99
253.12	2.003
253.37	2.016
253.67	2.026
253.92	2.038
254.22	2.048
254.52	2.056
254.82	2.064
255.11	2.074
255.37	2.084
255.62	2.093
255.88	2.102
256.09	2.113
256.3	2.123
256.56	2.131
256.73	2.142
256.94	2.151
257.15	2.161
257.41	2.17
257.62	2.18
257.88	2.188
258.09	2.196
258.34	2.203
258.6	2.211
258.85	2.219
259.15	2.226
259.45	2.232
259.75	2.239
260	2.245
260.3	2.251
260.6	2.257
260.81	2.264
261.02	2.271
261.23	2.278
261.45	2.285
261.66	2.291
261.91	2.298
262.17	2.303
262.47	2.308
262.76	2.312
263.1	2.316
263.49	2.318
263.83	2.32
264.21	2.323
264.55	2.326
264.8	2.332
265.02	2.339
265.14	2.346
265.27	2.352
265.4	2.359
265.48	2.367
265.61	2.373
265.74	2.379
265.91	2.385
266.04	2.391
266.21	2.397
266.42	2.403
266.63	2.409
266.93	2.413
267.27	2.415
267.61	2.417
267.99	2.419
268.33	2.422
268.63	2.425
268.93	2.429
269.18	2.434
269.44	2.438
269.86	2.446
270.03	2.448
270.15	2.45
270.34	2.451
270.48	2.451
270.61	2.451
270.71	2.451
270.8	2.451
270.89	2.451
270.95	2.451
270.99	2.45
271.07	2.45
271.13	2.449
271.23	2.448
271.39	2.445
271.54	2.441
271.73	2.436
271.9	2.431
272.07	2.425
272.24	2.418
272.41	2.409
272.58	2.402
272.75	2.394
272.92	2.385
273.09	2.377
273.26	2.369
273.43	2.362
273.6	2.354
273.77	2.346
273.94	2.342
274.11	2.338
274.28	2.342
274.45	2.346
274.62	2.354
274.79	2.361
274.96	2.37
275.13	2.374
275.3	2.378
275.47	2.382
275.64	2.386
275.81	2.388
275.98	2.389
276.15	2.39
276.32	2.389
276.49	2.387
276.66	2.382
276.83	2.377
277	2.371
277.17	2.365
277.34	2.356
277.51	2.348
277.68	2.338
277.85	2.328
278.02	2.322
278.19	2.319
278.36	2.322
278.53	2.324
278.7	2.329
278.87	2.334
279.04	2.338
279.21	2.342
279.38	2.346
279.55	2.347
279.72	2.348
279.89	2.345
280.06	2.342
280.23	2.335
280.4	2.325
280.57	2.314
280.74	2.301
280.91	2.284
281.08	2.267
281.25	2.246
281.42	2.225
281.59	2.193
281.76	2.156
281.93	2.129
282.1	2.089
282.27	2.05
282.44	2.009
282.61	1.971
282.78	1.943
282.95	1.908
283.12	1.873
283.29	1.837
283.46	1.807
283.63	1.768
283.8	1.732
283.97	1.701
284.14	1.675
284.31	1.642
284.48	1.617
284.65	1.58
284.82	1.55
284.99	1.518
285.16	1.483
285.33	1.452
285.5	1.418
285.67	1.382
285.84	1.342
286.01	1.308
286.18	1.27
286.35	1.239
286.52	1.195
286.69	1.159
286.86	1.132
287.03	1.075
287.2	1.043
287.37	0.971
287.54	0.951
287.71	0.86
