Uv/Vis Spectrum: Cyclopentylbenzene
Formula: C11H14
CAS: 700-88-9
Boiling point: 214.5-216/ 750 mm
Instrument: unknown
Origin: INSTITUTE OF ENERGY PROBLEMS OF CHEMICAL PHYSICS, RAS
Wavelength (nm)	Logarithm epsilon
227.21	1.26
227.55	1.218
227.88	1.171
228.22	1.118
228.56	1.058
228.84	1.018
229.28	0.969
229.66	0.928
229.98	0.89
230.41	0.857
230.62	0.852
230.79	0.857
231.13	0.887
231.55	0.928
232.01	0.981
232.31	1.025
232.71	1.083
233.03	1.132
233.37	1.183
233.7	1.229
234.04	1.26
234.38	1.289
234.72	1.326
235.05	1.359
235.39	1.381
235.77	1.397
236.11	1.416
236.31	1.426
236.53	1.433
236.7	1.432
236.91	1.426
237.29	1.412
237.66	1.401
238.05	1.397
238.43	1.397
238.81	1.401
239.18	1.412
239.52	1.433
239.88	1.463
240.15	1.49
240.45	1.519
240.74	1.546
241.04	1.576
241.34	1.6
241.63	1.627
241.88	1.656
242.18	1.68
242.47	1.698
242.73	1.72
243.02	1.74
243.27	1.76
243.57	1.776
243.95	1.782
244.29	1.77
244.63	1.759
245	1.766
245.3	1.785
245.51	1.805
245.72	1.828
245.85	1.849
245.97	1.87
246.14	1.889
246.27	1.908
246.44	1.925
246.61	1.942
246.76	1.96
246.94	1.975
247.11	1.99
247.24	2.005
247.36	2.019
247.53	2.033
247.7	2.046
247.87	2.059
248.04	2.072
248.25	2.084
248.46	2.096
248.71	2.106
249.01	2.114
249.39	2.114
249.68	2.105
249.98	2.096
250.32	2.09
250.7	2.093
251.03	2.101
251.24	2.112
251.45	2.123
251.58	2.134
251.71	2.145
251.88	2.155
252	2.166
252.17	2.175
252.34	2.185
252.47	2.195
252.68	2.204
252.85	2.213
252.97	2.222
253.14	2.231
253.31	2.239
253.44	2.248
253.61	2.256
253.77	2.264
253.94	2.272
254.11	2.28
254.28	2.287
254.49	2.295
254.66	2.302
254.87	2.309
255.12	2.314
255.17	2.315
255.21	2.316
255.25	2.317
255.29	2.317
255.33	2.318
255.38	2.318
255.42	2.319
255.46	2.32
255.5	2.321
255.63	2.322
255.8	2.323
255.97	2.321
256.13	2.318
256.3	2.316
256.47	2.312
256.64	2.303
256.81	2.298
256.98	2.291
257.15	2.284
257.32	2.275
257.48	2.27
257.65	2.272
257.82	2.277
257.94	2.285
258.05	2.296
258.16	2.308
258.26	2.32
258.37	2.334
258.48	2.348
258.57	2.358
258.63	2.368
258.71	2.375
258.88	2.383
259.04	2.389
259.21	2.394
259.38	2.399
259.54	2.402
259.72	2.405
259.89	2.408
260.06	2.409
260.22	2.407
260.39	2.401
260.56	2.393
260.73	2.389
260.9	2.388
261.07	2.389
261.24	2.394
261.41	2.4
261.5	2.409
261.57	2.422
261.65	2.437
261.74	2.448
261.91	2.458
262.08	2.46
262.25	2.459
262.42	2.456
262.52	2.449
262.61	2.44
262.69	2.429
262.8	2.416
262.93	2.4
263.06	2.381
263.24	2.359
263.43	2.334
263.6	2.305
263.77	2.273
263.94	2.227
264.01	2.224
264.1	2.225
264.27	2.234
264.44	2.245
264.61	2.261
264.78	2.27
264.95	2.273
265.12	2.274
265.28	2.272
265.45	2.267
265.62	2.258
265.79	2.249
265.96	2.238
266.13	2.225
266.3	2.211
266.47	2.195
266.63	2.175
266.8	2.149
266.97	2.118
267.04	2.101
267.09	2.084
267.14	2.066
267.2	2.052
267.31	2.038
267.38	2.035
267.48	2.038
267.58	2.051
267.65	2.069
267.69	2.088
267.74	2.109
267.78	2.124
267.81	2.14
267.87	2.161
267.92	2.181
267.98	2.201
268.15	2.254
268.32	2.301
268.49	2.339
268.66	2.364
268.83	2.369
269	2.365
269.17	2.351
269.35	2.333
269.5	2.31
269.63	2.283
269.8	2.249
269.98	2.212
270.18	2.164
270.34	2.112
270.51	2.053
270.68	2.003
270.85	1.953
271.02	1.901
271.19	1.854
271.36	1.8
271.52	1.734
271.69	1.68
271.86	1.618
272.03	1.566
