Uv/Vis Spectrum: 2,3,5,6-Tetrafluoroaniline
Formula: C6H3F4N
CAS: 700-17-4
Melting point: 30-31
Boiling point: 158
Instrument: Spectrophotometer SF-16
Origin: INSTITUTE OF ENERGY PROBLEMS OF CHEMICAL PHYSICS, RAS
Wavelength (nm)	Logarithm epsilon
230	4.06002
231	4.07
232	4.07
233	4.06
234	4.06
235	4.05
236	4.03
237	4.02
238	4.01
239	3.99
240	3.97
241	3.94
242	3.92
243	3.89
244	3.86
245	3.82
246	3.79
247	3.75
248	3.71
249	3.68
250	3.64
251	3.58
252	3.55
253	3.51
254	3.48
255	3.45
256	3.42
257	3.39
258	3.35
259	3.32
260	3.28999
261	3.26
262	3.24
263	3.22
264	3.19
265	3.17
266	3.15
267	3.12
268	3.11
269	3.08
270	3.07
271	3.05
272	3.04
273	3.02
274	3
275	2.98
276	2.97
277	2.95
278	2.94
279	2.92
280	2.91
281	2.89
282	2.87
283	2.85
284	2.83
285	2.8
286	2.77
287	2.75
288	2.7
289	2.64
