Uv/Vis Spectrum: 1,3-dihydro-2,3-dimethyl-1-(3-methyphenyl)-1-isobenzofuranol
Formula: C17H18O2
CAS: 7002-47-3
Instrument: SF-4A
Origin: INSTITUTE OF ENERGY PROBLEMS OF CHEMICAL PHYSICS, RAS
Wavelength (nm)	Logarithm epsilon
236.226	2.766
236.726	2.745
237.226	2.728
237.726	2.714
238.226	2.703
238.726	2.695
239.226	2.69
239.726	2.687
240.226	2.687
240.726	2.688
241.226	2.692
241.726	2.697
242.226	2.703
242.726	2.711
243.226	2.72
243.726	2.729
244.226	2.739
244.726	2.749
245.226	2.76
245.726	2.771
246.226	2.781
246.726	2.792
247.226	2.802
247.726	2.812
248.226	2.821
248.726	2.831
249.226	2.84
249.726	2.849
250.226	2.857
250.726	2.867
251.217	2.876
251.717	2.887
252.217	2.899
252.717	2.911
253.217	2.924
253.717	2.937
254.217	2.949
254.717	2.961
255.217	2.971
255.717	2.979
256.217	2.985
256.717	2.988
257.27	2.987
257.737	2.988
258.114	2.991
258.491	2.995
259.029	3.006
259.388	3.018
259.888	3.033
260.388	3.049
260.888	3.063
261.388	3.073
261.888	3.077
262.388	3.074
262.888	3.066
263.388	3.053
263.863	3.041
264.385	3.031
264.885	3.02
265.385	3.008
265.885	2.997
266.385	2.991
266.885	2.994
267.264	3.008
267.549	3.018
267.926	3.037
268.304	3.052
268.681	3.056
269.058	3.048
269.234	3.025
269.375	3.012
269.875	2.969
270.375	2.933
270.875	2.903
271.375	2.878
271.875	2.856
272.375	2.837
272.875	2.82
273.375	2.803
273.875	2.786
274.375	2.769
274.875	2.75
275.375	2.73
275.875	2.708
276.375	2.685
276.875	2.66
277.375	2.633
277.875	2.606
278.375	2.577
278.875	2.548
279.375	2.519
279.875	2.492
