Uv/Vis Spectrum: 7-amino-[1,2,4]triazolo[1,5-c]pyrimidine-5(6H)-thione
Formula: C5H5N5S
CAS: 70182-88-6
Melting point: > 300
Instrument: Beckman-26
Origin: INSTITUTE OF ENERGY PROBLEMS OF CHEMICAL PHYSICS, RAS
Wavelength (nm)	Logarithm epsilon
216.906	4.443
217.115	4.439
217.915	4.43
218.715	4.42
219.515	4.41
220.315	4.4
221.115	4.389
221.915	4.377
222.715	4.365
223.515	4.351
224.315	4.336
225.115	4.319
225.915	4.301
226.715	4.28
227.515	4.258
228.315	4.233
229.115	4.206
229.915	4.176
230.715	4.143
231.515	4.107
232.315	4.068
232.858	4.038
233.658	3.994
234.458	3.952
235.258	3.912
236.058	3.875
236.858	3.842
237.658	3.812
238.458	3.788
239.258	3.768
240.058	3.753
240.858	3.744
241.658	3.74
242.458	3.741
243.258	3.747
244.058	3.757
244.858	3.77
245.658	3.784
246.458	3.798
247.216	3.807
248.016	3.825
248.816	3.842
249.616	3.859
250.416	3.876
251.216	3.892
252.016	3.909
252.816	3.925
253.616	3.942
254.416	3.958
255.216	3.974
256.016	3.989
256.816	4.005
257.616	4.02
258.416	4.035
259.216	4.05
260.016	4.064
260.816	4.079
261.616	4.093
262.416	4.107
263.216	4.12
264.016	4.133
264.816	4.146
265.616	4.159
266.416	4.171
267.216	4.183
268.016	4.195
268.816	4.206
269.616	4.217
270.416	4.228
271.216	4.238
272.016	4.248
272.816	4.257
273.338	4.264
274.138	4.273
274.938	4.282
275.738	4.29
276.538	4.298
277.338	4.306
278.138	4.313
278.938	4.32
279.738	4.325
280.538	4.329
281.338	4.331
282.138	4.331
282.938	4.33
283.738	4.326
284.538	4.32
285.338	4.312
286.138	4.301
286.938	4.288
287.695	4.275
288.495	4.25
289.295	4.223
290.095	4.195
290.895	4.166
291.695	4.136
292.495	4.105
293.295	4.074
294.095	4.042
294.895	4.007
295.695	3.968
296.495	3.924
297.295	3.872
297.756	3.839
298.463	3.805
299.062	3.78
299.862	3.756
300.662	3.74
301.462	3.731
302.262	3.728
303.062	3.729
303.862	3.733
304.662	3.74
305.462	3.748
306.262	3.758
307.062	3.768
307.862	3.778
308.662	3.789
309.462	3.799
310.262	3.81
311.062	3.822
311.624	3.833
312.424	3.843
313.224	3.854
314.024	3.864
314.824	3.875
315.624	3.886
316.424	3.896
317.224	3.907
318.024	3.917
318.824	3.928
319.624	3.938
320.424	3.948
321.224	3.958
322.024	3.968
322.824	3.977
323.624	3.987
324.424	3.996
325.224	4.005
326.024	4.013
326.824	4.022
327.624	4.03
328.424	4.038
329.224	4.046
330.024	4.054
330.824	4.061
331.624	4.068
332.424	4.075
333.224	4.082
334.024	4.088
334.824	4.095
335.624	4.101
336.424	4.107
337.224	4.113
337.36	4.114
338.16	4.12
338.96	4.126
339.76	4.132
340.56	4.137
341.36	4.141
342.16	4.144
342.96	4.147
343.76	4.148
344.56	4.149
345.36	4.148
346.16	4.146
346.96	4.142
347.76	4.138
348.56	4.132
349.36	4.124
350.16	4.116
350.96	4.106
351.76	4.095
352.56	4.083
353.36	4.07
354.16	4.056
354.96	4.041
355.76	4.025
356.56	4.009
357.36	3.992
358.16	3.976
358.96	3.959
359.76	3.942
360.56	3.925
361.36	3.909
362.16	3.894
362.96	3.88
363.76	3.867
364.56	3.855
