Uv/Vis Spectrum: Benzene, 1-fluoro-2,4-dinitro-
Formula: C6H3FN2O4
CAS: 70-34-8
Boiling point: 175-178/ 25 mm
Instrument: Unicam SP 8000
Origin: INSTITUTE OF ENERGY PROBLEMS OF CHEMICAL PHYSICS, RAS
Wavelength (nm)	Logarithm epsilon
213.83	4.532
214.67	4.508
215.23	4.487
216	4.454
216.67	4.427
217.33	4.4
217.83	4.373
218.5	4.346
219.17	4.319
219.83	4.291
220.6	4.261
221.17	4.237
222	4.213
222.83	4.19
223.83	4.166
224.83	4.142
226.17	4.125
227.5	4.112
229	4.105
230.5	4.108
232	4.115
233.33	4.132
234.67	4.142
236.17	4.149
237.67	4.156
239.17	4.159
240.67	4.149
242.17	4.142
243.5	4.129
244.83	4.115
246	4.098
247.17	4.081
248.17	4.061
249	4.039
250	4.013
250.85	3.988
251.67	3.963
252.39	3.939
253.17	3.912
253.84	3.885
254.5	3.858
255.19	3.829
255.84	3.8
256.34	3.773
257	3.746
257.67	3.719
258.17	3.691
258.67	3.664
259.17	3.637
259.84	3.61
260.34	3.58
260.84	3.552
261.34	3.525
261.84	3.495
262.19	3.468
262.58	3.442
263	3.41
263.5	3.383
264	3.356
264.56	3.328
265.17	3.302
265.84	3.274
266.5	3.247
267.1	3.224
267.84	3.196
268.5	3.169
269.34	3.142
270	3.115
270.67	3.088
271.33	3.064
272.17	3.037
272.96	3.013
273.84	2.986
274.67	2.963
275.5	2.939
276.34	2.915
277.34	2.895
