Uv/Vis Spectrum: di-(2-thienyl)methanone
Formula: C9H6OS2
CAS: 704-38-1
Melting point: 88-89
Boiling point: 189-190/10 mm
Instrument: Hitachi-Perkin-Elmer EPS-3T
Origin: INSTITUTE OF ENERGY PROBLEMS OF CHEMICAL PHYSICS, RAS
Wavelength (nm)	Logarithm epsilon
220.102	3.603
221.602	3.557
223.102	3.512
224.602	3.468
226.102	3.425
227.602	3.383
229.102	3.342
230.602	3.303
232.102	3.268
233.602	3.236
235.102	3.211
236.602	3.193
238.102	3.184
239.602	3.187
241.102	3.205
242.602	3.238
244.102	3.292
244.124	3.293
245.624	3.345
247.124	3.407
248.624	3.475
250.124	3.543
251.624	3.609
253.124	3.67
254.624	3.725
256.124	3.772
257.624	3.813
259.124	3.848
260.41	3.875
261.91	3.903
263.41	3.928
264.91	3.948
266.41	3.964
267.91	3.975
269.41	3.981
270.91	3.983
272.41	3.981
273.91	3.975
275.41	3.968
276.91	3.959
278.41	3.95
279.91	3.942
281.41	3.936
282.91	3.933
284.41	3.933
285.653	3.935
287.153	3.939
288.653	3.946
290.153	3.957
291.653	3.97
293.153	3.985
294.653	4.002
296.153	4.02
297.653	4.039
299.153	4.059
300.653	4.078
302.153	4.096
303.653	4.114
305.153	4.129
306.653	4.144
308.153	4.156
309.471	4.166
310.971	4.174
312.471	4.181
313.971	4.185
315.471	4.186
316.971	4.181
318.471	4.17
319.971	4.153
321.471	4.13
322.971	4.1
324.471	4.066
325.971	4.027
327.282	3.989
328.782	3.945
330.282	3.897
331.782	3.849
333.282	3.803
334.782	3.757
336.282	3.707
337.782	3.647
339.605	3.568
341.105	3.504
342.605	3.443
344.105	3.387
345.605	3.337
