Uv/Vis Spectrum: L-Asparagine
Formula: C4H8N2O3
CAS: 70-47-3
Melting point: 234.5 dec
Instrument: Beckman DU
Origin: INSTITUTE OF ENERGY PROBLEMS OF CHEMICAL PHYSICS, RAS
Wavelength (nm)	Logarithm epsilon
200.27	2.971
200.42	2.952
200.55	2.937
200.68	2.922
200.82	2.908
200.95	2.891
201.08	2.878
201.23	2.865
201.36	2.853
201.5	2.842
201.64	2.828
201.77	2.817
201.91	2.806
202.05	2.793
202.18	2.782
202.32	2.77
202.45	2.76
202.59	2.751
202.73	2.739
202.86	2.728
203	2.719
203.14	2.708
203.27	2.698
203.41	2.686
203.55	2.677
203.68	2.664
203.82	2.657
203.95	2.645
204.09	2.632
204.23	2.62
204.36	2.609
204.51	2.596
204.64	2.588
204.77	2.579
204.91	2.566
205.05	2.556
205.18	2.547
205.32	2.539
205.45	2.53
205.59	2.521
205.86	2.5
206.01	2.49
206.14	2.481
206.27	2.473
206.41	2.463
206.68	2.445
206.81	2.438
206.94	2.427
207.09	2.417
207.23	2.41
207.35	2.401
207.5	2.394
207.63	2.385
207.82	2.376
208.01	2.367
208.17	2.358
208.36	2.35
208.59	2.339
208.88	2.324
209.14	2.31
209.85	2.283
210.77	2.247
211.59	2.217
212	2.202
212.14	2.196
212.3	2.189
212.46	2.182
213.62	2.129
213.9	2.116
214.45	2.093
214.59	2.086
214.73	2.079
214.95	2.07
215.66	2.048
216.31	2.028
216.7	2.016
217.04	2.004
217.47	1.988
218.06	1.971
218.98	1.938
220.18	1.895
221.68	1.837
222.91	1.785
223.59	1.756
224.28	1.725
224.95	1.691
225.5	1.655
226.18	1.615
226.52	1.594
228.31	1.469
229.45	1.372
