Uv/Vis Spectrum: Benzenesulfonamide, 4-methyl-
Formula: C7H9NO2S
CAS: 70-55-3
Melting point: 138
Instrument: Unicam SP 800
Origin: INSTITUTE OF ENERGY PROBLEMS OF CHEMICAL PHYSICS, RAS
Wavelength (nm)	Logarithm epsilon
201.19	4.149
201.35	4.142
201.52	4.138
201.86	4.043
202.54	3.978
203.22	3.886
203.89	3.781
204.57	3.713
205.25	3.641
205.93	3.57
206.6	3.515
207.28	3.498
207.96	3.498
208.63	3.501
209.31	3.512
209.99	3.525
210.67	3.546
211.34	3.559
212.02	3.576
212.7	3.593
213.38	3.61
214.05	3.627
214.73	3.644
215.41	3.665
216.08	3.692
216.76	3.713
217.44	3.74
218.12	3.767
218.79	3.794
219.47	3.818
220.15	3.842
220.82	3.866
221.5	3.89
222.18	3.907
222.86	3.924
223.53	3.937
224.21	3.948
224.89	3.954
225.56	3.954
226.24	3.954
226.92	3.951
227.6	3.944
228.27	3.937
228.95	3.934
229.63	3.92
230.31	3.903
230.98	3.879
231.66	3.849
232.34	3.818
233.01	3.788
233.69	3.757
234.37	3.713
235.05	3.662
235.72	3.604
236.4	3.532
237.08	3.457
237.75	3.341
238.43	3.243
239.11	3.137
239.79	3.059
240.46	2.95
241.14	2.851
241.82	2.766
242.5	2.664
243.17	2.578
243.85	2.48
244.53	2.398
245.2	2.306
245.88	2.265
246.56	2.231
247.91	2.204
249.44	2.2
250.62	2.217
251.64	2.238
252.48	2.265
253.33	2.289
254.35	2.313
255.02	2.34
256.04	2.361
256.89	2.374
257.06	2.378
257.22	2.378
257.39	2.381
257.56	2.384
257.73	2.384
257.9	2.388
258.07	2.391
258.24	2.391
258.41	2.395
258.58	2.398
258.92	2.391
259.26	2.381
259.59	2.378
259.93	2.367
260.27	2.364
260.61	2.361
260.95	2.361
261.29	2.367
261.63	2.378
261.97	2.391
262.3	2.408
262.64	2.415
262.98	2.435
263.32	2.446
263.66	2.459
264	2.469
264.34	2.483
264.67	2.49
265.01	2.487
265.35	2.469
265.69	2.459
266.03	2.446
266.37	2.432
266.71	2.412
267.04	2.401
267.38	2.391
267.72	2.378
268.06	2.364
268.4	2.354
268.74	2.354
269.08	2.361
269.41	2.364
269.75	2.367
270.09	2.378
270.43	2.381
270.77	2.367
271.11	2.35
271.45	2.326
271.78	2.303
272.12	2.282
272.46	2.258
272.8	2.234
273.14	2.214
273.48	2.197
273.82	2.177
274.16	2.17
274.49	2.163
274.83	2.166
275.17	2.166
275.51	2.204
275.85	2.2
276.19	2.146
276.53	2.044
277.2	1.911
278.56	1.751
278.9	1.717
279.23	1.662
279.57	1.574
279.91	1.495
280.25	1.455
280.59	1.363
280.93	1.274
281.27	1.23
281.6	1.145
281.94	1.07
282.28	1.036
282.62	0.937
282.96	0.865
283.3	0.811
283.64	0.739
283.97	0.654
284.31	0.583
284.65	0.538
284.99	0.474
