Uv/Vis Spectrum: 1-(4-aminophenyl)-1-propanone
Formula: C9N12O
CAS: 70-69-9
Melting point: 140
Instrument: unknown
Origin: INSTITUTE OF ENERGY PROBLEMS OF CHEMICAL PHYSICS, RAS
Wavelength (nm)	Logarithm epsilon
254.492	2.968
255.629	2.994
258.129	3.067
260.629	3.147
263.129	3.232
265.629	3.32
268.129	3.408
270.629	3.494
273.129	3.578
275.629	3.659
278.129	3.735
280.629	3.806
283.129	3.872
285.629	3.932
288.129	3.986
290.629	4.035
293.129	4.079
295.629	4.117
298.129	4.15
300.629	4.178
303.129	4.201
305.629	4.22
308.129	4.235
310.629	4.246
313.129	4.252
315.629	4.253
318.129	4.25
320.629	4.24
323.129	4.225
325.629	4.201
328.129	4.169
330.629	4.126
333.129	4.07
335.629	3.999
338.129	3.91
340.629	3.8
343.129	3.666
345.705	3.496
348.205	3.324
350.705	3.159
353.205	2.991
355.705	2.816
358.205	2.632
360.705	2.44
363.205	2.245
365.705	2.051
368.205	1.863
370.705	1.687
373.205	1.531
375.705	1.397
378.205	1.291
380.705	1.213
383.205	1.163
385.705	1.135
388.205	1.122
390.705	1.111
393.158	1.083
395.658	1.073
398.158	1.064
400.658	1.052
403.158	1.037
405.658	1.018
408.158	0.996
410.658	0.97
413.158	0.942
415.658	0.913
418.158	0.883
420.658	0.855
423.158	0.829
425.658	0.806
428.158	0.787
430.658	0.772
433.158	0.759
435.658	0.748
