Uv/Vis Spectrum: 2-quinoxalinecarboxylic acid ethyl ester
Formula: C11H10N2O2
CAS: 7065-23-8
Melting point: 83-84
Instrument: Hitachi EPS-3
Origin: INSTITUTE OF ENERGY PROBLEMS OF CHEMICAL PHYSICS, RAS
Wavelength (nm)	Logarithm epsilon
215	3.981
216	3.956
217	3.935
218	3.916
219	3.902
220	3.89
221	3.881
222	3.876
223	3.873
224	3.872
225	3.874
226	3.878
227	3.885
228	3.893
229	3.902
230	3.913
231	3.926
232	3.939
233	3.954
234	3.969
235	3.985
236	4.002
237	4.019
238	4.037
239	4.055
240	4.073
241	4.092
242	4.11
243	4.13
244	4.15
245	4.17
246	4.192
247	4.215
248	4.24
249	4.266
250	4.295
251	4.327
252	4.363
253	4.403
253.004	4.402
254.004	4.442
255.004	4.48
256.004	4.514
257.004	4.545
258.004	4.57
259.004	4.591
260.004	4.608
261.004	4.619
262.004	4.626
263.004	4.628
264.004	4.627
265.004	4.621
266.004	4.611
267.004	4.598
268.004	4.581
269.004	4.561
270.004	4.537
271.004	4.509
272.004	4.478
273.004	4.441
273.037	4.446
274.037	4.369
275.037	4.303
276.037	4.243
277.037	4.184
278.037	4.122
279.037	4.056
280.037	3.985
281.037	3.907
282.037	3.825
283.037	3.738
284.037	3.651
285.037	3.565
285.116	3.553
286.116	3.497
287.116	3.456
288.116	3.425
289.116	3.402
290.116	3.385
291.116	3.372
292.116	3.363
293.116	3.355
294.116	3.349
295.116	3.344
296.116	3.339
297.116	3.335
298.116	3.331
299.116	3.328
300.116	3.326
301.116	3.325
302.116	3.325
303.116	3.327
304.116	3.33
305.116	3.334
306.116	3.34
307.116	3.348
308.116	3.357
309.116	3.368
310.116	3.379
311.116	3.391
312.116	3.404
313.116	3.418
314.116	3.431
315.116	3.444
316.116	3.457
317.116	3.471
318.116	3.484
319.116	3.499
320.116	3.515
321.058	3.535
322.058	3.551
323.058	3.567
324.058	3.583
325.058	3.599
326.058	3.614
327.058	3.629
328.058	3.643
329.058	3.657
330.058	3.671
331.058	3.684
332.058	3.698
333.058	3.711
334.058	3.724
335.058	3.738
336.058	3.752
337.058	3.766
338.058	3.781
339.058	3.797
340.058	3.813
341.058	3.83
342.058	3.847
343.058	3.865
344.058	3.884
345.058	3.902
346.058	3.921
347.058	3.939
348.058	3.956
349.058	3.973
350.058	3.987
350.813	3.996
351.813	4.006
352.813	4.016
353.813	4.027
354.813	4.038
355.813	4.05
356.813	4.061
357.813	4.072
358.813	4.082
359.813	4.092
360.813	4.1
361.813	4.108
362.813	4.115
363.813	4.12
364.813	4.124
365.813	4.127
366.813	4.128
367.813	4.128
368.813	4.126
369.813	4.123
370.813	4.118
371.813	4.111
372.813	4.102
373.813	4.092
374.813	4.081
375.813	4.068
376.813	4.053
377.813	4.038
378.813	4.02
379.813	4.002
380.813	3.983
381.813	3.963
382.813	3.942
382.925	3.937
383.925	3.912
384.925	3.886
385.925	3.86
386.925	3.833
387.925	3.805
388.925	3.778
389.925	3.75
390.925	3.723
391.925	3.696
392.925	3.669
393.925	3.643
394.925	3.617
395.925	3.591
396.925	3.564
397.925	3.538
398.925	3.511
399.925	3.484
400.925	3.456
401.925	3.427
