Uv/Vis Spectrum: 9-propyl-9H-purin-6-amine
Formula: C8H11N5
CAS: 707-98-2
Melting point: 175.5-177
Instrument: Cary 15
Origin: INSTITUTE OF ENERGY PROBLEMS OF CHEMICAL PHYSICS, RAS
Wavelength (nm)	Logarithm epsilon
193.333	4.275
194.333	4.258
195.333	4.25
196.333	4.25
197.333	4.254
198.333	4.262
199.333	4.273
200.333	4.284
201.333	4.295
202.333	4.306
203.333	4.315
204.333	4.323
205.333	4.328
206.333	4.329
207.234	4.328
208.234	4.32
209.234	4.313
210.234	4.305
211.234	4.295
212.234	4.281
213.234	4.264
214.234	4.242
215.234	4.217
216.234	4.188
217.234	4.155
218.234	4.117
219.234	4.07
220.234	4.006
220.38	3.995
221.38	3.88
222.38	3.762
223.38	3.647
224.38	3.545
225.38	3.467
226.38	3.421
227.38	3.403
228.38	3.404
229.38	3.414
230.38	3.425
231.38	3.438
232.38	3.457
233.333	3.487
234.285	3.499
235.238	3.533
236.666	3.564
238.095	3.612
239.523	3.663
240.952	3.709
242.381	3.757
243.809	3.806
245.238	3.85
246.52	3.888
247.52	3.919
248.52	3.95
249.52	3.979
250.52	4.006
251.52	4.031
252.52	4.053
253.52	4.073
254.52	4.091
255.52	4.107
256.52	4.121
257.52	4.134
258.305	4.146
259.305	4.156
260.305	4.164
261.305	4.17
262.305	4.172
263.305	4.17
264.305	4.164
265.305	4.154
266.305	4.14
267.305	4.123
268.305	4.103
269.305	4.08
270.305	4.055
271.305	4.028
272.305	3.996
273.264	3.959
274.264	3.911
275.264	3.856
276.264	3.793
277.264	3.72
278.264	3.637
279.264	3.542
280.264	3.435
281.264	3.316
282.264	3.188
283.264	3.055
284.264	2.928
285.264	2.813
286.264	2.697
287.264	2.506
