Uv/Vis Spectrum: 1-(4-hydroxyphenyl)-1-propanone
Formula: C9H10O2
CAS: 70-70-2
Melting point: 148
Instrument: unknown
Origin: INSTITUTE OF ENERGY PROBLEMS OF CHEMICAL PHYSICS, RAS
Wavelength (nm)	Logarithm epsilon
253.226	3.558
254.226	3.599
255.226	3.635
256.226	3.668
257.226	3.698
258.226	3.724
259.226	3.749
260.226	3.771
261.226	3.792
262.226	3.811
263.226	3.828
264.226	3.843
265.226	3.856
266.226	3.868
267.226	3.877
268.226	3.884
269.226	3.89
270.226	3.893
271.226	3.894
272.226	3.893
273.226	3.889
274.226	3.884
275.226	3.878
276.226	3.869
277.226	3.86
278.226	3.849
279.226	3.837
280.226	3.824
281.226	3.811
282.226	3.797
283.226	3.783
284.226	3.769
285.226	3.755
286.226	3.74
287.226	3.725
288.226	3.709
289.226	3.691
290.226	3.671
291.226	3.648
292.226	3.62
293.226	3.586
293.96	3.544
294.96	3.501
295.96	3.451
296.96	3.395
297.96	3.336
298.96	3.273
299.96	3.208
300.96	3.143
301.96	3.077
302.96	3.012
303.96	2.948
304.96	2.887
305.96	2.828
306.96	2.772
307.96	2.72
308.96	2.672
309.96	2.629
310.96	2.589
311.96	2.554
312.96	2.523
313.96	2.496
314.96	2.474
315.96	2.455
316.96	2.439
317.96	2.426
318.96	2.415
319.96	2.405
320.96	2.396
321.96	2.387
322.96	2.376
323.96	2.363
324.96	2.346
325.099	2.343
326.099	2.318
327.099	2.295
328.099	2.274
329.099	2.253
330.099	2.232
331.099	2.21
332.099	2.187
333.099	2.162
334.099	2.135
335.099	2.105
336.099	2.074
337.099	2.039
338.099	2.002
339.099	1.962
340.099	1.919
341.099	1.874
342.099	1.827
343.099	1.777
344.099	1.726
345.099	1.672
346.099	1.618
347.099	1.562
348.099	1.505
349.099	1.448
350.099	1.391
351.099	1.333
352.099	1.276
353.099	1.22
354.099	1.164
355.099	1.109
355.151	1.101
356.151	1.065
357.151	1.026
358.151	0.986
359.151	0.945
360.151	0.902
361.151	0.859
362.151	0.814
363.151	0.768
364.151	0.72
365.151	0.671
366.151	0.619
367.151	0.566
368.151	0.512
