Uv/Vis Spectrum: Ethanamine, N-ethyl-N-nitro-
Formula: C4H10N2O2
CAS: 7119-92-8
Boiling point: 93/ 16mm
Instrument: SFD-2
Origin: INSTITUTE OF ENERGY PROBLEMS OF CHEMICAL PHYSICS, RAS
Wavelength (nm)	Logarithm epsilon
226.874	3.708
228.874	3.723
230.874	3.736
232.874	3.747
234.874	3.755
236.874	3.759
238.874	3.76
240.874	3.756
242.874	3.747
244.874	3.735
246.874	3.717
248.874	3.696
250.874	3.671
252.874	3.641
254.874	3.608
256.874	3.572
258.874	3.532
260.874	3.49
262.874	3.444
264.874	3.397
266.874	3.346
268.874	3.294
270.874	3.239
272.874	3.182
274.874	3.123
276.874	3.062
278.874	2.998
280.874	2.932
282.874	2.863
284.874	2.792
286.874	2.718
288.874	2.642
290.874	2.562
292.874	2.48
294.874	2.395
296.874	2.309
298.874	2.22
300.874	2.13
302.874	2.04
