Uv/Vis Spectrum: Pyridazineacetic acid, 1-, (6H), 3-chloro-6-oxo-, ethyl ester
Formula: C8H9ClN2O3
CAS: 71173-10-9
Melting point: 78
Instrument: Beckman DU
Origin: INSTITUTE OF ENERGY PROBLEMS OF CHEMICAL PHYSICS, RAS
Wavelength (nm)	Logarithm epsilon
233.77	3.448
233.89	3.448
234	3.448
234.24	3.445
234.71	3.424
235.18	3.397
235.65	3.374
236.12	3.349
236.59	3.327
237.06	3.301
237.53	3.274
238.01	3.249
238.48	3.219
238.95	3.194
239.42	3.166
239.89	3.128
240.36	3.098
240.83	3.071
241.3	3.038
241.77	2.99
242.24	2.952
242.71	2.918
243.19	2.87
243.66	2.834
244.13	2.798
244.6	2.762
245.07	2.73
245.54	2.7
246.01	2.667
246.48	2.646
246.95	2.613
247.42	2.604
247.89	2.599
248.37	2.594
248.84	2.584
249.31	2.578
249.78	2.578
250.25	2.573
250.72	2.573
251.19	2.573
251.66	2.578
252.13	2.584
252.6	2.594
253.07	2.599
253.55	2.613
254.02	2.623
254.49	2.641
254.96	2.65
255.43	2.663
255.9	2.672
256.37	2.692
256.84	2.708
257.31	2.715
257.78	2.73
258.25	2.752
258.73	2.769
259.2	2.785
259.67	2.801
260.14	2.816
260.61	2.831
261.08	2.843
261.55	2.857
262.02	2.873
262.49	2.886
262.96	2.896
263.43	2.908
263.91	2.92
264.38	2.932
264.85	2.945
265.32	2.954
265.79	2.967
266.26	2.978
266.73	2.988
267.2	3
267.67	3.01
268.14	3.021
268.61	3.03
269.09	3.039
269.56	3.05
270.03	3.06
270.5	3.069
270.97	3.077
271.44	3.087
271.91	3.097
272.38	3.101
272.85	3.106
273.32	3.111
273.79	3.114
274.27	3.115
274.74	3.12
275.21	3.123
275.68	3.127
276.15	3.133
276.62	3.139
277.09	3.143
277.56	3.15
278.03	3.157
278.5	3.164
278.97	3.17
279.45	3.181
279.92	3.188
280.39	3.197
280.86	3.205
281.33	3.213
281.8	3.222
282.27	3.228
282.74	3.233
283.21	3.242
283.68	3.249
284.15	3.257
284.63	3.263
285.1	3.27
285.57	3.276
286.04	3.282
286.51	3.288
286.98	3.294
287.45	3.298
287.92	3.304
288.39	3.309
288.86	3.313
289.33	3.318
289.81	3.322
290.28	3.327
290.75	3.332
291.22	3.336
291.69	3.341
292.16	3.345
292.63	3.348
293.1	3.35
293.57	3.354
294.04	3.357
294.51	3.36
294.99	3.363
295.46	3.366
295.93	3.368
296.4	3.37
296.87	3.372
297.34	3.374
297.81	3.375
298.28	3.377
298.75	3.379
299.22	3.379
299.69	3.379
300.17	3.38
300.64	3.381
301.11	3.379
301.58	3.379
302.05	3.378
302.52	3.377
302.99	3.374
303.46	3.373
303.93	3.37
304.4	3.367
304.87	3.364
305.35	3.359
305.82	3.353
306.29	3.348
306.76	3.344
307.23	3.338
307.7	3.332
308.17	3.326
308.64	3.321
309.11	3.312
309.58	3.306
310.05	3.297
310.53	3.287
311	3.281
311.47	3.272
311.94	3.262
312.41	3.253
312.88	3.244
313.35	3.233
313.82	3.223
314.29	3.211
314.76	3.2
315.23	3.186
315.71	3.173
316.18	3.157
316.65	3.141
317.12	3.12
317.59	3.1
318.06	3.082
318.53	3.062
319	3.043
319.47	3.011
319.94	2.984
320.41	2.954
320.89	2.932
321.36	2.911
321.83	2.888
322.3	2.862
322.77	2.843
323.24	2.819
323.71	2.801
324.18	2.779
324.65	2.759
325.12	2.741
325.59	2.723
326.07	2.708
326.54	2.688
327.01	2.672
327.48	2.65
327.95	2.623
328.42	2.604
328.89	2.584
329.36	2.568
329.83	2.546
330.3	2.517
330.77	2.493
331.25	2.466
331.72	2.446
332.19	2.424
332.66	2.393
333.13	2.369
333.6	2.343
334.07	2.315
334.54	2.296
335.01	2.265
335.48	2.231
335.95	2.195
336.43	2.156
339.25	2.01
340.19	1.901
341.13	1.82
