Uv/Vis Spectrum: Methanone, cyclohexylphenyl-
Formula: C13H16O
CAS: 712-50-5
Melting point: 59-60
Instrument: unknown
Origin: INSTITUTE OF ENERGY PROBLEMS OF CHEMICAL PHYSICS, RAS
Wavelength (nm)	Logarithm epsilon
253.36	3.744
253.53	3.744
254.03	3.703
254.71	3.649
255.39	3.591
256.06	3.521
256.74	3.455
257.42	3.393
258.09	3.319
258.77	3.252
259.44	3.195
260.12	3.104
260.8	3.038
261.47	2.976
262.15	2.889
262.83	2.823
263.5	2.744
264.18	2.682
264.85	2.621
265.53	2.559
266.21	2.53
266.88	2.521
267.56	2.521
268.24	2.526
268.91	2.546
269.59	2.575
270.24	2.602
270.87	2.629
271.55	2.655
272.25	2.691
272.95	2.731
273.65	2.786
274.32	2.844
275	2.889
275.68	2.934
276.35	2.959
277.03	2.98
277.7	3.005
278.38	3.013
279.06	3
279.73	2.98
280.41	2.959
281.09	2.943
281.76	2.926
282.41	2.911
283.03	2.898
283.79	2.881
284.47	2.867
285.07	2.858
285.85	2.845
286.45	2.836
287.13	2.828
287.83	2.817
288.53	2.798
289.2	2.777
289.88	2.757
290.55	2.72
291.23	2.678
291.91	2.621
292.58	2.563
293.26	2.497
293.94	2.422
294.62	2.357
295.29	2.302
295.97	2.245
296.64	2.162
297.32	2.079
297.99	2.005
298.67	1.889
299.35	1.79
300.02	1.687
300.7	1.629
301.38	1.6
302.05	1.576
302.73	1.563
303.41	1.551
304.08	1.547
304.76	1.547
305.43	1.547
306.18	1.553
306.8	1.562
307.46	1.576
308.14	1.588
308.84	1.601
309.49	1.613
310.17	1.625
310.88	1.638
311.5	1.649
312.12	1.659
312.87	1.675
313.55	1.691
314.23	1.712
314.9	1.728
315.58	1.745
316.31	1.761
316.93	1.774
317.61	1.79
318.28	1.811
318.96	1.828
319.53	1.839
320.31	1.856
321	1.873
321.67	1.885
322.34	1.902
322.92	1.914
323.69	1.927
324.37	1.939
325.05	1.947
325.64	1.949
326.4	1.951
327.08	1.951
327.75	1.951
328.35	1.951
329.11	1.947
329.78	1.943
330.46	1.935
331.13	1.927
331.69	1.922
332.49	1.914
333.16	1.906
333.72	1.9
334.52	1.889
335.08	1.882
335.87	1.869
336.5	1.861
337.22	1.852
337.8	1.846
338.57	1.832
339.15	1.822
339.93	1.807
340.6	1.79
341.28	1.774
341.98	1.76
342.63	1.745
343.31	1.724
343.98	1.704
344.66	1.683
345.34	1.658
346.01	1.638
346.69	1.613
347.37	1.592
348.04	1.571
348.72	1.551
349.39	1.526
350.07	1.493
350.75	1.472
351.42	1.448
352.1	1.415
352.78	1.394
353.45	1.365
354.13	1.336
354.81	1.315
355.48	1.291
356.16	1.266
356.83	1.237
357.51	1.212
358.19	1.179
358.86	1.154
359.54	1.13
360.22	1.092
360.89	1.072
361.57	1.047
362.24	1.018
362.92	0.989
363.6	0.968
364.27	0.935
364.95	0.915
365.63	0.878
366.3	0.853
366.98	0.816
367.66	0.791
368.33	0.766
369.01	0.733
