Uv/Vis Spectrum: Benzene, 1-methyl-2-(phenylmethyl)-
Formula: C14H14
CAS: 713-36-0
Melting point: 66
Boiling point: 280.5
Instrument: unknown
Origin: INSTITUTE OF ENERGY PROBLEMS OF CHEMICAL PHYSICS, RAS
Wavelength (nm)	Logarithm epsilon
230.89	2.559
231.19	2.497
231.34	2.474
231.53	2.448
231.7	2.422
231.87	2.397
232.05	2.376
232.22	2.349
232.39	2.319
232.56	2.295
232.73	2.276
232.9	2.262
233.07	2.25
233.24	2.239
233.41	2.229
233.58	2.221
233.75	2.211
233.92	2.202
234.09	2.194
234.26	2.188
234.43	2.178
234.6	2.171
234.77	2.163
234.94	2.154
235.11	2.148
235.28	2.141
235.45	2.134
235.62	2.127
235.8	2.12
235.97	2.115
236.14	2.108
236.31	2.105
236.48	2.099
236.65	2.096
236.82	2.093
236.99	2.089
237.16	2.087
237.33	2.086
237.5	2.081
237.67	2.081
237.84	2.08
238.01	2.08
238.18	2.08
238.35	2.081
238.52	2.081
238.69	2.084
238.86	2.087
239.03	2.089
239.2	2.095
239.37	2.099
239.54	2.105
239.72	2.112
239.89	2.116
240.06	2.122
240.23	2.129
240.4	2.136
240.57	2.142
240.74	2.149
240.91	2.155
241.08	2.162
241.25	2.168
241.42	2.174
241.59	2.18
241.76	2.188
241.93	2.196
242.1	2.202
242.27	2.207
242.44	2.213
242.61	2.219
242.78	2.225
242.95	2.232
243.12	2.238
243.29	2.244
243.47	2.25
243.64	2.257
243.81	2.263
243.98	2.269
244.15	2.277
244.32	2.283
244.49	2.291
244.65	2.301
244.83	2.309
245	2.316
245.17	2.323
245.34	2.331
245.51	2.339
245.68	2.346
245.85	2.353
246.02	2.36
246.19	2.367
246.36	2.374
246.53	2.384
246.7	2.391
246.87	2.399
247.04	2.406
247.22	2.412
247.39	2.42
247.56	2.427
247.73	2.434
247.9	2.44
248.07	2.447
248.24	2.453
248.41	2.458
248.58	2.463
248.75	2.467
248.92	2.472
249.09	2.475
249.26	2.478
249.43	2.481
249.6	2.484
249.77	2.487
249.94	2.49
250.11	2.494
250.28	2.496
250.45	2.499
250.62	2.502
250.79	2.504
250.96	2.507
251.14	2.51
251.31	2.512
251.48	2.515
251.65	2.518
251.82	2.521
251.99	2.524
252.16	2.529
252.33	2.532
252.5	2.537
252.67	2.543
252.84	2.549
253.01	2.557
253.18	2.565
253.35	2.575
253.52	2.58
253.69	2.586
253.86	2.59
254.03	2.593
254.2	2.597
254.37	2.599
254.54	2.602
254.71	2.604
254.89	2.606
255.06	2.608
255.23	2.61
255.4	2.613
255.57	2.616
255.74	2.62
255.91	2.623
256.08	2.628
256.25	2.633
256.42	2.638
256.59	2.644
256.76	2.649
256.93	2.654
257.1	2.66
257.27	2.664
257.44	2.666
257.61	2.669
257.78	2.672
257.95	2.674
258.12	2.677
258.29	2.679
258.46	2.682
258.63	2.684
258.81	2.686
258.98	2.688
259.15	2.691
259.32	2.693
259.49	2.696
259.66	2.698
259.83	2.7
260	2.703
260.17	2.705
260.34	2.708
260.51	2.709
260.68	2.711
260.85	2.713
261.02	2.715
261.19	2.717
261.36	2.72
261.53	2.721
261.7	2.724
261.87	2.726
262.04	2.729
262.21	2.732
262.38	2.735
262.56	2.738
262.73	2.741
262.9	2.744
262.98	2.745
263.07	2.743
263.24	2.738
263.41	2.733
263.58	2.729
263.75	2.723
263.92	2.717
264.09	2.711
264.26	2.704
264.43	2.698
264.6	2.694
264.77	2.688
264.94	2.682
265.11	2.677
265.28	2.671
265.45	2.667
265.62	2.663
265.79	2.658
265.96	2.655
266.13	2.65
266.3	2.641
266.48	2.629
266.65	2.615
266.82	2.605
266.99	2.597
267.16	2.589
267.33	2.585
267.5	2.584
267.67	2.583
267.84	2.584
268.01	2.585
268.18	2.586
268.35	2.588
268.52	2.59
268.69	2.592
268.86	2.594
269.03	2.597
269.2	2.599
269.37	2.601
269.54	2.605
269.71	2.607
269.88	2.61
270.05	2.61
270.23	2.61
270.4	2.608
270.57	2.604
270.74	2.596
270.91	2.582
271.08	2.57
271.25	2.56
271.42	2.55
271.59	2.54
271.76	2.53
271.93	2.519
272.1	2.508
272.27	2.491
272.44	2.47
272.61	2.452
272.78	2.415
272.95	2.383
273.12	2.334
273.29	2.28
273.46	2.219
273.63	2.183
273.8	2.136
273.98	2.096
274.15	2.057
274.32	2.013
274.49	1.964
274.66	1.92
274.83	1.876
275	1.84
275.17	1.801
275.34	1.758
275.51	1.714
275.68	1.673
275.85	1.632
276.02	1.592
276.19	1.547
276.36	1.503
276.53	1.467
276.7	1.434
276.87	1.391
277.04	1.335
277.21	1.291
277.38	1.241
277.55	1.184
277.72	1.133
277.9	1.105
278.07	1.043
278.24	0.97
278.41	0.907
278.58	0.832
278.75	0.707
278.92	0.67
