Uv/Vis Spectrum: Benzene
Formula: C6H6
CAS: 71-43-2
Melting point: 5.5
Boiling point: 80.0
Instrument: n.i.g.
Origin: INSTITUTE OF ENERGY PROBLEMS OF CHEMICAL PHYSICS, RAS
Wavelength (nm)	Logarithm epsilon
162.418	3.70381
162.564	3.71007
162.711	3.71609
162.857	3.72198
162.857	3.72198
163.368	3.76127
163.878	3.80052
164.388	3.83966
164.898	3.87864
164.898	3.87864
165.833	3.95573
166.349	3.99978
166.616	4.02315
166.803	4.03819
166.803	4.03819
166.853	4.04673
166.901	4.05504
166.945	4.06322
166.945	4.06322
167.016	4.06572
167.083	4.06799
167.148	4.07013
167.148	4.07013
167.983	4.13917
168.591	4.18967
169.023	4.22587
169.328	4.25202
169.555	4.27234
169.754	4.29108
169.974	4.31249
169.974	4.31249
170.055	4.31567
170.137	4.31873
170.218	4.32155
170.218	4.32155
170.82	4.36955
171.092	4.39283
171.269	4.41134
171.269	4.41134
171.35	4.41507
171.432	4.41868
171.513	4.42204
171.513	4.42204
172.489	4.49657
173.249	4.55403
173.818	4.59669
174.22	4.62682
174.481	4.64667
174.625	4.65851
174.677	4.6646
174.677	4.6646
175.036	4.68394
175.395	4.70328
175.754	4.72262
175.754	4.72262
175.77	4.72644
175.785	4.73026
175.796	4.73408
175.796	4.73408
175.947	4.7409
176.102	4.75087
176.302	4.76093
176.302	4.76093
176.519	4.77555
176.625	4.78481
176.713	4.79664
176.713	4.79664
176.783	4.7975
176.85	4.79812
176.915	4.79863
176.915	4.79863
176.961	4.80241
177.005	4.8062
177.046	4.80999
177.046	4.80999
177.355	4.82058
177.61	4.83208
177.826	4.84094
177.826	4.84094
178.098	4.84066
178.366	4.84039
178.632	4.84012
178.632	4.84012
179.008	4.83205
179.237	4.82547
179.457	4.81902
179.457	4.81902
179.536	4.81185
179.615	4.80479
179.695	4.79798
179.695	4.79798
179.875	4.79165
180.001	4.78429
180.118	4.77949
180.118	4.77949
180.259	4.75992
180.336	4.75161
180.417	4.74743
180.417	4.74743
180.519	4.72381
180.695	4.6944
180.928	4.65385
180.928	4.65385
181.016	4.64315
181.132	4.62005
181.353	4.56697
181.757	4.46634
181.757	4.46634
181.879	4.43149
181.994	4.39924
182.106	4.36848
182.217	4.33809
182.332	4.30693
182.453	4.27391
182.586	4.23788
182.732	4.19773
182.895	4.15234
183.08	4.10059
183.289	4.04136
183.525	3.97352
183.525	3.97352
183.704	3.91189
183.803	3.88525
183.906	3.87077
183.906	3.87077
183.929	3.85499
183.961	3.83892
184.02	3.81728
184.12	3.78482
184.28	3.73627
184.513	3.66636
184.838	3.56984
184.838	3.56984
185.209	3.48304
185.408	3.43983
185.607	3.4032
185.607	3.4032
185.686	3.3971
185.763	3.391
185.837	3.3849
185.837	3.3849
185.871	3.36791
185.902	3.35106
185.931	3.33444
185.931	3.33444
186.114	3.31808
186.32	3.29293
186.417	3.27483
186.417	3.27483
186.591	3.26003
186.765	3.24548
186.939	3.23105
186.939	3.23105
187.043	3.22782
187.145	3.22484
187.243	3.22198
187.243	3.22198
187.364	3.22279
187.485	3.22336
187.606	3.2238
187.606	3.2238
187.631	3.22923
187.655	3.23454
187.674	3.23961
187.674	3.23961
188.093	3.24847
188.508	3.25721
188.921	3.26571
188.921	3.26571
189.123	3.2655
189.324	3.2653
189.525	3.26509
189.525	3.26509
189.799	3.26122
189.988	3.25635
190.254	3.24628
190.254	3.24628
190.449	3.22386
190.8	3.19168
191.043	3.16775
191.043	3.16775
191.169	3.16543
191.291	3.16312
191.412	3.1608
191.412	3.1608
191.507	3.16764
191.561	3.17525
191.62	3.19015
191.62	3.19015
191.701	3.19333
191.78	3.19639
191.856	3.19922
191.856	3.19922
191.939	3.2098
192.212	3.23308
192.907	3.28902
192.907	3.28902
193.033	3.28781
193.156	3.28673
193.277	3.2859
193.277	3.2859
193.585	3.26057
193.892	3.23548
194.195	3.21052
194.195	3.21052
194.308	3.21041
194.421	3.21029
194.533	3.21018
194.533	3.21018
194.707	3.2268
194.909	3.24718
195.076	3.25944
195.076	3.25944
195.207	3.27844
195.334	3.29733
195.459	3.31597
195.459	3.31597
195.516	3.31904
195.573	3.32186
195.63	3.32456
195.63	3.32456
195.678	3.33217
195.722	3.33979
195.764	3.34741
195.764	3.34741
195.968	3.35183
196.108	3.35339
196.306	3.35343
196.306	3.35343
196.417	3.34914
196.561	3.34019
196.862	3.31893
196.862	3.31893
197.094	3.31112
197.301	3.30141
197.66	3.28144
197.66	3.28144
197.857	3.27669
198.005	3.27541
198.188	3.26776
198.231	3.27648
198.231	3.27648
198.325	3.26598
198.448	3.28704
198.459	3.2642
198.59	3.26242
198.662	3.29736
198.874	3.30757
198.874	3.30757
198.967	3.31759
199.143	3.32947
199.349	3.34376
199.349	3.34376
199.551	3.34449
199.75	3.34497
199.946	3.34534
199.946	3.34534
200.05	3.34266
200.152	3.34022
200.251	3.33792
200.251	3.33792
200.695	3.31015
200.874	3.29762
200.941	3.28959
200.941	3.28959
201.405	3.2627
201.876	3.23166
202.166	3.21554
202.166	3.21554
202.439	3.22292
202.708	3.23031
202.976	3.2377
202.976	3.2377
203.064	3.23503
203.152	3.23261
203.241	3.23031
203.241	3.23031
203.591	3.19182
203.789	3.16662
203.924	3.15243
203.924	3.15243
204.076	3.1211
204.225	3.08989
204.371	3.05892
204.371	3.05892
204.44	3.0519
204.505	3.04512
204.568	3.03847
204.568	3.03847
204.579	3.02752
204.587	3.01671
204.593	3.00614
204.593	3.00614
204.711	2.97877
204.842	2.94237
205.003	2.8962
205.209	2.83949
205.476	2.7715
205.476	2.7715
205.602	2.72929
205.728	2.68708
205.853	2.64488
205.978	2.60267
206.102	2.56046
206.226	2.51825
206.35	2.47604
206.473	2.43384
206.473	2.43384
206.51	2.42761
206.546	2.41158
206.599	2.37384
206.685	2.30245
206.821	2.18551
206.821	2.18551
206.869	2.1794
206.911	2.16758
206.981	2.13991
