Uv/Vis Spectrum: 1,3,5-Tri-isopropylbenzene
Formula: C15H24
CAS: 717-74-8
Melting point: -7.4
Boiling point: 238
Instrument: Perkin-Elmer Model 21
Origin: INSTITUTE OF ENERGY PROBLEMS OF CHEMICAL PHYSICS, RAS
Wavelength (nm)	Logarithm epsilon
195.45	4.522
195.96	4.549
196.46	4.583
196.97	4.598
197.48	4.612
197.98	4.616
198.49	4.617
199	4.609
199.5	4.593
200.01	4.58
200.52	4.553
201.03	4.532
201.53	4.511
202.04	4.468
202.55	4.44
203.05	4.391
203.56	4.341
204.07	4.276
204.57	4.228
205.08	4.183
205.59	4.145
206.09	4.112
206.6	4.082
207.11	4.054
208.63	4.011
209.14	4
209.64	3.994
210.15	3.987
210.66	3.98
211.67	3.98
212.18	3.98
212.68	3.978
213.7	3.973
214.21	3.971
214.71	3.971
215.22	3.968
215.73	3.964
216.23	3.964
217.25	3.942
217.75	3.934
218.77	3.91
219.78	3.876
220.29	3.855
221.3	3.803
221.81	3.74
222.32	3.684
222.82	3.636
223.33	3.564
223.84	3.513
224.34	3.447
224.85	3.388
225.36	3.31
226.37	3.156
226.88	3.052
227.38	2.941
227.89	2.826
228.4	2.669
228.91	2.619
