Uv/Vis Spectrum: 1,1-Diphenylbutane
Formula: C16H18
CAS: 719-79-9
Melting point: 27
Boiling point: 287
Instrument: unknown
Origin: INSTITUTE OF ENERGY PROBLEMS OF CHEMICAL PHYSICS, RAS
Wavelength (nm)	Logarithm epsilon
223.07	2.694
223.17	2.687
223.3	2.679
223.42	2.671
223.59	2.658
223.76	2.646
223.93	2.632
224.1	2.617
224.27	2.605
224.44	2.589
224.61	2.572
224.78	2.553
224.95	2.53
225.12	2.506
225.29	2.488
225.47	2.466
225.64	2.452
225.81	2.445
225.98	2.439
226.15	2.432
226.32	2.43
226.49	2.427
226.66	2.426
226.83	2.426
227	2.425
227.17	2.425
227.34	2.426
227.51	2.426
227.69	2.428
227.86	2.43
228.03	2.432
228.2	2.434
228.37	2.438
228.54	2.441
228.71	2.446
228.88	2.449
229.05	2.453
229.22	2.458
229.39	2.462
229.56	2.468
229.73	2.474
229.91	2.482
230.08	2.488
230.25	2.494
230.42	2.502
230.59	2.51
230.76	2.517
230.93	2.523
231.1	2.529
231.27	2.536
231.44	2.543
231.61	2.549
231.78	2.556
231.96	2.562
232.13	2.569
232.3	2.575
232.47	2.581
232.64	2.587
232.81	2.593
232.98	2.599
233.15	2.605
233.32	2.613
233.49	2.618
233.66	2.624
233.83	2.629
234	2.635
234.18	2.64
234.35	2.646
234.52	2.651
234.69	2.656
234.86	2.662
235.03	2.667
235.2	2.671
235.37	2.677
235.54	2.681
235.71	2.686
235.88	2.691
236.05	2.696
236.22	2.7
236.4	2.705
236.57	2.709
236.74	2.714
236.91	2.718
237.08	2.723
237.25	2.728
237.42	2.732
237.59	2.736
237.76	2.741
237.93	2.745
238.1	2.749
238.27	2.754
238.45	2.757
238.62	2.762
238.79	2.766
238.96	2.77
239.13	2.774
239.3	2.778
239.47	2.782
239.64	2.786
239.81	2.789
239.98	2.793
240.15	2.797
240.32	2.8
240.49	2.804
240.67	2.807
240.84	2.811
241.01	2.814
241.18	2.818
241.35	2.821
241.52	2.825
241.69	2.828
241.86	2.832
242.03	2.835
242.2	2.839
242.37	2.842
242.54	2.844
242.71	2.847
242.89	2.849
243.06	2.85
243.23	2.851
243.4	2.852
243.57	2.853
243.74	2.854
243.91	2.854
244.08	2.855
244.25	2.856
244.42	2.857
244.59	2.858
244.76	2.858
244.94	2.86
245.11	2.861
245.28	2.862
245.45	2.865
245.62	2.871
245.79	2.88
245.96	2.884
246.13	2.888
246.3	2.891
246.47	2.895
246.64	2.898
246.81	2.901
246.98	2.903
247.16	2.906
247.33	2.91
247.5	2.913
247.67	2.917
247.84	2.921
248.01	2.925
248.18	2.929
248.35	2.932
248.52	2.933
248.69	2.934
248.86	2.934
249.03	2.934
249.2	2.935
249.38	2.935
249.55	2.935
249.72	2.935
249.89	2.936
250.06	2.936
250.23	2.936
250.4	2.936
250.57	2.937
250.74	2.938
250.91	2.938
251.08	2.939
251.25	2.94
251.43	2.942
251.6	2.943
251.77	2.945
251.94	2.947
252.11	2.949
252.28	2.952
252.45	2.954
252.62	2.957
252.79	2.96
252.96	2.962
253.13	2.963
253.3	2.964
253.47	2.965
253.65	2.965
253.82	2.965
253.99	2.965
254.16	2.965
254.33	2.965
254.5	2.964
254.67	2.964
254.84	2.963
255.01	2.962
255.18	2.962
255.35	2.961
255.52	2.96
255.69	2.958
255.87	2.956
256.04	2.954
256.21	2.952
256.38	2.949
256.55	2.945
256.72	2.942
256.89	2.939
257.06	2.937
257.23	2.936
257.4	2.936
257.57	2.936
257.74	2.938
257.92	2.94
258.09	2.943
258.26	2.944
258.43	2.945
258.6	2.945
258.77	2.945
258.94	2.945
259.11	2.945
259.28	2.944
259.45	2.943
259.62	2.943
259.79	2.942
259.96	2.941
260.14	2.939
260.31	2.938
260.48	2.936
260.65	2.934
260.82	2.931
260.99	2.927
261.16	2.924
261.33	2.919
261.5	2.914
261.67	2.908
261.84	2.903
262.01	2.893
262.18	2.885
262.36	2.875
262.53	2.868
262.7	2.858
262.87	2.848
263.04	2.836
263.21	2.829
263.38	2.825
263.55	2.823
263.72	2.82
263.89	2.819
264.06	2.818
264.23	2.816
264.41	2.815
264.58	2.814
264.75	2.813
264.92	2.812
265.09	2.809
265.26	2.806
265.43	2.804
265.6	2.799
265.77	2.791
265.94	2.777
266.04	2.764
266.11	2.754
266.16	2.746
266.2	2.739
266.25	2.728
266.33	2.716
266.47	2.705
266.54	2.701
266.63	2.698
266.71	2.696
266.8	2.695
266.88	2.694
266.97	2.694
267.05	2.693
267.14	2.693
267.22	2.694
267.31	2.694
267.39	2.696
267.48	2.696
267.56	2.697
267.64	2.698
267.72	2.699
267.82	2.701
267.91	2.702
267.99	2.704
268.08	2.705
268.16	2.707
268.25	2.708
268.33	2.71
268.42	2.712
268.5	2.714
268.6	2.716
268.67	2.717
268.76	2.718
268.85	2.718
268.93	2.718
269.02	2.718
269.05	2.717
269.07	2.715
269.08	2.712
269.09	2.71
269.1	2.707
269.14	2.695
269.22	2.667
269.31	2.631
269.39	2.597
269.49	2.557
269.61	2.514
269.73	2.474
269.81	2.446
269.93	2.411
270.05	2.376
270.11	2.356
270.2	2.33
270.31	2.305
270.39	2.282
270.52	2.254
270.68	2.233
270.85	2.216
271.02	2.2
271.19	2.185
271.36	2.173
