Uv/Vis Spectrum: Alizarin
Formula: C14H8O4
CAS: 72-48-0
Melting point: 289
Instrument: Beckman DU
Origin: INSTITUTE OF ENERGY PROBLEMS OF CHEMICAL PHYSICS, RAS
Wavelength (nm)	Logarithm epsilon
209.676	4.04591
209.986	4.03894
210.504	4.03299
212.909	4.03322
213.27	4.03326
213.936	4.04333
214.296	4.04336
214.802	4.05341
215.109	4.05344
215.824	4.06651
216.132	4.06654
216.47	4.07657
216.833	4.07961
217.503	4.08968
217.658	4.08969
218.171	4.09974
218.376	4.09976
218.886	4.10981
219.192	4.11384
219.548	4.11688
221.709	4.12022
222.014	4.12725
222.525	4.1373
222.731	4.13732
222.983	4.15429
223.037	4.14035
223.241	4.14437
223.65	4.16036
224.163	4.16741
224.521	4.17445
225.034	4.18049
225.546	4.19055
225.853	4.19458
226.571	4.20465
227.084	4.2107
227.597	4.21475
228.11	4.2208
228.623	4.22485
229.291	4.23092
230.317	4.23802
230.985	4.24108
231.704	4.24815
231.858	4.24817
232.216	4.2552
232.524	4.25823
233.036	4.26828
233.393	4.27832
233.548	4.27834
234.571	4.29844
234.777	4.29846
235.083	4.30849
235.289	4.30851
235.801	4.31856
235.955	4.31857
236.313	4.32861
236.824	4.33866
237.133	4.33869
237.49	4.34873
237.645	4.34874
238.157	4.35879
238.515	4.36583
238.669	4.36584
239.54	4.38193
239.694	4.38194
240.051	4.39198
240.41	4.39602
240.718	4.40205
240.923	4.40207
241.23	4.4091
241.589	4.41213
241.947	4.42217
242.101	4.42218
242.459	4.43222
242.767	4.43225
243.637	4.44934
243.997	4.45237
244.51	4.45642
245.023	4.46247
247.388	4.4667
248.11	4.45977
248.935	4.45285
249.812	4.43994
250.328	4.43699
251.36	4.42308
252.029	4.42015
252.751	4.41322
253.575	4.4103
254.297	4.40337
255.121	4.40045
255.637	4.3935
256.152	4.39055
257.029	4.38063
257.544	4.37768
258.061	4.36773
258.938	4.35781
259.611	4.34388
259.971	4.34091
260.488	4.33096
261.004	4.32801
261.16	4.32102
261.521	4.31806
262.192	4.30812
262.348	4.30114
263.071	4.28821
263.744	4.27427
264.104	4.2713
264.777	4.25837
265.14	4.2444
265.45	4.24143
265.657	4.23445
266.329	4.22151
266.691	4.21455
267.206	4.2116
267.877	4.20166
269.061	4.19878
270.452	4.19191
275.442	4.1894
277.296	4.18257
279.2	4.17976
279.716	4.17281
280.901	4.16592
281.262	4.15996
281.778	4.15601
282.295	4.14606
282.81	4.14311
283.481	4.13317
283.842	4.13021
284.513	4.12027
284.874	4.1163
285.391	4.10635
285.906	4.1034
286.268	4.09644
286.579	4.09047
286.94	4.0865
287.612	4.07357
287.973	4.0706
288.49	4.06065
289.006	4.0507
289.885	4.03378
290.196	4.02681
290.557	4.02084
290.919	4.01388
291.23	4.00691
291.59	4.00394
291.747	3.99696
292.108	3.99099
292.47	3.98403
292.779	3.98106
311.901	3.63287
312.623	3.62894
313.139	3.62299
313.808	3.61905
314.324	3.6131
314.994	3.60917
315.716	3.60324
316.54	3.59932
317.056	3.59337
318.291	3.58949
319.321	3.58359
321.02	3.57975
322.204	3.57387
324.983	3.57014
326.528	3.56428
328.381	3.56046
329.257	3.55455
330.286	3.55065
330.957	3.54471
331.986	3.54081
332.709	3.53088
333.379	3.52795
333.895	3.521
334.564	3.51806
335.08	3.51111
335.596	3.50816
336.112	3.50121
336.627	3.49826
337.143	3.49131
337.864	3.48838
338.535	3.47844
339.05	3.47549
339.722	3.46556
340.237	3.4616
340.753	3.45565
341.269	3.4517
341.991	3.44177
342.506	3.43882
343.022	3.43187
343.538	3.42892
344.208	3.42199
344.878	3.41905
345.24	3.41208
346.115	3.40917
346.94	3.40225
347.815	3.39933
348.485	3.3924
349.515	3.3895
350.751	3.38262
352.449	3.37978
353.994	3.37293
361.196	3.37063
363.406	3.37785
365.978	3.3811
367.004	3.3882
368.907	3.39138
370.088	3.3985
371.116	3.4016
371.989	3.40868
373.171	3.4118
373.889	3.41887
374.917	3.42197
375.739	3.42905
376.612	3.43214
377.485	3.43922
378.513	3.44232
379.334	3.4494
380.208	3.45249
381.08	3.45957
381.903	3.46265
382.621	3.46972
383.443	3.47281
383.956	3.47986
384.829	3.48294
385.496	3.49001
386.37	3.49309
387.037	3.50016
387.911	3.50324
388.423	3.51029
389.091	3.51336
389.604	3.52041
390.323	3.52348
391.144	3.53056
391.658	3.53361
392.376	3.54068
406.545	3.65207
407.263	3.65814
408.085	3.66222
408.804	3.6683
409.472	3.67236
410.14	3.67543
411.166	3.68253
411.885	3.6886
412.913	3.6927
413.58	3.69876
414.762	3.70288
415.635	3.70896
416.817	3.71308
417.536	3.71915
419.078	3.7233
419.899	3.72938
421.647	3.73355
422.469	3.73963
424.525	3.74383
425.912	3.74997
429.358	3.7543
436.868	3.75503
442.733	3.7516
444.277	3.74575
446.336	3.74195
447.366	3.73605
448.704	3.73218
449.735	3.72628
450.764	3.72238
451.486	3.71645
452.67	3.71256
453.546	3.70665
454.37	3.70273
455.092	3.6968
455.916	3.69288
456.432	3.68693
457.307	3.68301
457.978	3.67708
458.699	3.67314
459.369	3.66721
460.039	3.66327
460.555	3.65732
461.43	3.65341
461.946	3.64746
462.616	3.64352
462.978	3.63756
463.647	3.63362
464.369	3.62769
464.884	3.62374
465.4	3.61779
465.916	3.61384
466.432	3.60789
466.947	3.60394
467.463	3.59799
468.133	3.59405
468.494	3.58809
469.01	3.58414
469.526	3.57819
470.041	3.57424
470.557	3.56828
471.382	3.56136
472.104	3.55143
472.62	3.54848
472.93	3.54151
473.961	3.53461
474.322	3.52865
474.837	3.5247
475.199	3.51873
475.714	3.51478
476.025	3.50881
476.54	3.50486
476.902	3.49889
477.417	3.49494
477.779	3.48898
478.449	3.48504
478.81	3.47908
479.325	3.47513
479.636	3.46916
479.997	3.46519
480.358	3.45922
480.874	3.45527
481.184	3.4493
481.699	3.44535
482.061	3.43939
482.576	3.43544
482.938	3.42947
483.453	3.42552
483.764	3.41955
484.125	3.41559
484.486	3.40962
485.002	3.40567
485.312	3.3997
485.827	3.39575
486.189	3.38978
486.55	3.38582
487.066	3.37987
487.375	3.3759
487.737	3.36993
488.252	3.36598
488.614	3.36002
