Uv/Vis Spectrum: 3-methoxy-2-phenyl-4H-1-benzopyran-4-one
Formula: C16H12O3
CAS: 7245-02-5
Melting point: 114-115
Instrument: Pye Unicam SP 8000
Origin: INSTITUTE OF ENERGY PROBLEMS OF CHEMICAL PHYSICS, RAS
Wavelength (nm)	Logarithm epsilon
203.387	4.247
204.387	4.231
205.387	4.219
206.387	4.21
207.387	4.203
208.387	4.197
209.387	4.192
210.387	4.187
211.387	4.182
212.387	4.176
213.387	4.169
214.387	4.162
215.387	4.155
216.387	4.146
217.387	4.137
218.387	4.128
219.387	4.119
220.387	4.11
221.387	4.102
222.387	4.094
223.387	4.088
224.387	4.082
225.387	4.078
226.387	4.076
227.387	4.075
228.387	4.076
229.387	4.079
230.387	4.084
231.387	4.09
232.387	4.097
233.387	4.105
234.334	4.113
235.334	4.12
236.334	4.124
237.334	4.128
238.334	4.13
239.334	4.132
240.334	4.133
241.334	4.134
242.334	4.134
243.334	4.134
244.334	4.133
245.334	4.13
246.334	4.127
247.334	4.122
248.334	4.114
249.334	4.105
250.334	4.093
251.334	4.077
252.334	4.059
253.334	4.036
254.048	4.015
255.048	3.986
256.048	3.957
257.048	3.93
258.048	3.905
259.048	3.882
260.048	3.861
261.048	3.842
262.048	3.826
263.048	3.813
264.048	3.803
265.048	3.796
266.048	3.791
267.048	3.789
268.048	3.79
269.048	3.793
270.048	3.798
271.012	3.805
272.012	3.814
273.012	3.822
274.012	3.829
275.012	3.837
276.012	3.848
277.012	3.861
278.012	3.878
279.012	3.898
280.012	3.922
281.012	3.949
281.786	3.974
282.786	3.996
283.786	4.013
284.786	4.026
285.786	4.037
286.786	4.046
287.786	4.054
288.786	4.06
289.786	4.065
290.786	4.07
291.786	4.072
292.786	4.074
293.786	4.073
294.786	4.071
295.786	4.066
296.786	4.06
297.786	4.052
298.786	4.044
299.786	4.035
299.895	4.038
300.895	4.027
301.895	4.019
302.895	4.014
303.895	4.01
304.895	4.008
305.895	4.008
306.895	4.009
307.895	4.011
308.895	4.013
309.895	4.016
310.895	4.019
311.895	4.022
312.895	4.025
313.895	4.027
314.895	4.029
315.895	4.029
316.895	4.029
317.895	4.027
318.895	4.025
319.895	4.02
320.895	4.014
321.895	4.007
322.895	3.997
323.895	3.986
324.895	3.973
325.895	3.957
326.895	3.94
327.895	3.92
328.895	3.898
329.008	3.901
330.008	3.875
331.008	3.849
332.008	3.824
333.008	3.799
334.008	3.774
335.008	3.75
336.008	3.726
337.008	3.702
338.008	3.679
339.008	3.655
340.008	3.633
341.008	3.61
342.008	3.588
343.008	3.566
344.008	3.544
344.405	3.538
