Uv/Vis Spectrum: Methoxychlor
Formula: C16H15Cl3O2
CAS: 72-43-5
Instrument: Perkin-Elmer 402
Origin: INSTITUTE OF ENERGY PROBLEMS OF CHEMICAL PHYSICS, RAS
Wavelength (nm)	Logarithm epsilon
214.6	4.157
214.77	4.157
215.11	4.148
215.62	4.138
216.63	4.125
217.14	4.125
218.67	4.125
219.18	4.127
219.69	4.136
220.2	4.142
220.71	4.144
221.22	4.151
221.73	4.153
222.74	4.163
223.25	4.17
223.76	4.18
224.27	4.182
224.78	4.191
225.8	4.204
226.82	4.214
227.33	4.219
227.84	4.225
228.85	4.233
229.87	4.231
230.38	4.233
231.4	4.216
231.91	4.212
232.42	4.204
232.93	4.202
233.44	4.189
234.46	4.172
234.96	4.165
235.47	4.163
235.98	4.157
237	4.138
238.02	4.125
238.53	4.117
239.04	4.11
239.55	4.106
241.07	4.104
242.09	4.112
242.6	4.112
243.11	4.117
243.62	4.123
244.64	4.134
246.17	4.136
246.68	4.136
247.19	4.136
247.69	4.134
248.2	4.125
248.71	4.106
249.73	4.093
250.24	4.083
251.94	4.038
252.11	4.029
253.13	3.991
253.63	3.983
254.65	3.93
255.16	3.902
255.67	3.87
256.69	3.804
257.2	3.757
258.22	3.694
258.73	3.67
259.24	3.638
259.75	3.63
260.25	3.602
260.76	3.581
261.27	3.577
261.78	3.562
262.29	3.553
263.31	3.545
264.33	3.534
264.84	3.534
265.35	3.534
265.86	3.534
266.36	3.534
266.87	3.534
268.4	3.536
269.42	3.539
269.93	3.543
270.44	3.545
270.95	3.545
271.46	3.547
271.97	3.545
272.98	3.547
274.51	3.551
275.02	3.553
275.53	3.553
276.04	3.556
277.06	3.556
278.08	3.551
278.59	3.551
279.09	3.536
279.6	3.524
280.11	3.488
280.62	3.451
281.13	3.434
281.64	3.432
282.66	3.434
283.68	3.441
284.19	3.439
284.7	3.432
285.2	3.411
285.71	3.381
286.22	3.335
286.73	3.247
287.24	3.177
287.75	3.107
288.6	2.975
288.94	2.933
289.28	2.863
289.62	2.825
289.96	2.763
290.3	2.733
290.64	2.684
291.32	2.553
291.48	2.544
291.82	2.493
291.99	2.429
292.16	2.412
292.5	2.3
292.67	2.274
292.84	2.234
293.01	2.213
293.35	2.091
293.52	2.036
293.86	1.917
294.03	1.894
