Uv/Vis Spectrum: C10HF7O
Formula: C10HF7O
CAS: 727-49-1
Melting point: 119.0-120.0
Instrument: SFD-2
Origin: INSTITUTE OF ENERGY PROBLEMS OF CHEMICAL PHYSICS, RAS
Wavelength (nm)	Logarithm epsilon
228.23	4.562
228.74	4.552
229.77	4.452
231.3	4.273
232.84	4.103
234.38	4.014
235.92	3.944
237.46	3.864
239	3.795
240.54	3.71
242.08	3.645
243.62	3.576
245.16	3.501
246.7	3.416
248.24	3.341
249.78	3.307
251.32	3.302
252.86	3.302
254.4	3.317
255.94	3.336
257.48	3.356
259.02	3.376
260.56	3.386
262.1	3.406
263.64	3.436
265.18	3.466
266.72	3.496
268.26	3.531
269.79	3.556
271.33	3.581
272.87	3.6
274.41	3.62
275.95	3.63
277.49	3.645
279.03	3.65
280.57	3.66
282.11	3.66
283.65	3.665
285.19	3.655
286.73	3.645
288.27	3.635
289.81	3.62
291.35	3.6
292.89	3.585
294.43	3.566
295.97	3.531
297.51	3.491
299.05	3.426
300.59	3.336
302.13	3.242
303.67	3.192
305.21	3.152
306.74	3.137
308.28	3.127
309.82	3.132
311.36	3.152
312.9	3.162
314.44	3.172
315.98	3.182
317.52	3.182
319.06	3.177
320.6	3.152
322.14	3.132
323.68	3.127
325.22	3.142
326.76	3.172
328.3	3.202
329.84	3.227
331.38	3.237
332.92	3.217
334.46	3.112
336	2.863
337.54	2.784
339.08	2.764
340.62	2.614
