Uv/Vis Spectrum: 2-Pyridinol
Formula: C5H5NO
CAS: 72762-00-6
Melting point: 107.8
Instrument: n.i.g.
Origin: INSTITUTE OF ENERGY PROBLEMS OF CHEMICAL PHYSICS, RAS
Wavelength (nm)	Logarithm epsilon
245.67	4.102
246	4.102
246.33	4.098
246.66	4.094
246.99	4.09
247.31	4.09
247.64	4.086
247.97	4.082
248.3	4.078
248.63	4.078
248.96	4.074
249.29	4.07
249.62	4.074
250.28	4.07
250.93	4.061
251.59	4.045
252.25	4.016
252.91	4
253.57	3.98
253.9	3.951
254.23	3.943
254.55	3.934
254.88	3.918
255.21	3.906
255.54	3.869
255.87	3.865
256.2	3.828
256.53	3.775
256.86	3.762
257.19	3.664
257.52	3.66
257.85	3.607
258.18	3.521
258.5	3.459
258.83	3.455
259.16	3.255
259.49	3.05
259.82	2.907
260.15	2.825
260.48	2.743
260.81	2.64
261.14	2.542
261.47	2.497
261.8	2.472
262.12	2.46
262.45	2.448
262.78	2.44
263.11	2.436
263.44	2.431
263.77	2.431
264.1	2.427
264.43	2.423
264.76	2.419
265.09	2.419
265.42	2.419
265.75	2.419
266.07	2.423
266.4	2.448
266.73	2.468
267.06	2.489
267.39	2.522
267.72	2.542
268.05	2.558
268.38	2.583
268.71	2.603
269.04	2.648
270.02	2.677
271.01	2.694
271.34	2.714
271.67	2.747
272	2.755
272.33	2.767
272.66	2.788
272.99	2.796
273.31	2.808
273.64	2.861
273.97	2.878
274.3	2.882
274.63	2.907
274.96	2.939
275.29	2.96
275.62	2.968
275.95	2.968
276.28	3.001
276.61	3.025
276.94	3.042
277.26	3.074
277.59	3.087
277.92	3.103
278.25	3.128
278.58	3.132
278.91	3.169
279.24	3.185
279.57	3.201
279.9	3.205
280.23	3.222
280.56	3.23
280.88	3.242
281.21	3.255
281.54	3.279
281.87	3.291
282.2	3.308
282.53	3.32
282.86	3.332
283.19	3.345
283.52	3.357
283.85	3.369
284.18	3.382
284.5	3.394
284.83	3.398
285.16	3.414
285.49	3.427
285.82	3.435
286.15	3.447
286.48	3.455
286.81	3.476
287.14	3.492
287.47	3.504
287.8	3.517
288.13	3.525
288.45	3.545
288.78	3.554
289.11	3.558
289.44	3.57
289.77	3.574
290.1	3.578
290.43	3.582
290.76	3.595
291.09	3.603
291.42	3.615
291.75	3.619
292.07	3.631
292.4	3.64
292.73	3.648
293.06	3.656
293.39	3.668
293.72	3.689
294.05	3.697
294.38	3.701
294.71	3.705
295.04	3.709
295.37	3.717
295.7	3.726
296.02	3.734
296.35	3.738
296.68	3.746
297.01	3.754
297.34	3.758
297.67	3.771
298	3.775
298.33	3.779
298.66	3.783
298.99	3.791
299.32	3.795
299.64	3.799
299.97	3.799
300.3	3.803
300.63	3.808
300.96	3.812
301.29	3.812
301.62	3.816
301.95	3.816
302.28	3.816
302.61	3.816
302.94	3.816
303.26	3.816
303.59	3.816
303.92	3.816
304.25	3.816
304.58	3.812
304.91	3.816
305.24	3.812
305.57	3.803
305.9	3.803
306.23	3.799
306.56	3.799
306.89	3.795
307.21	3.791
307.54	3.787
307.87	3.783
308.2	3.771
308.53	3.762
308.86	3.758
309.19	3.754
309.52	3.746
309.85	3.742
310.18	3.734
310.51	3.726
310.83	3.717
311.16	3.709
311.49	3.701
311.82	3.697
312.15	3.689
312.48	3.681
312.81	3.676
313.14	3.672
313.47	3.668
313.8	3.66
314.13	3.644
314.45	3.631
314.78	3.619
315.11	3.611
315.44	3.586
315.77	3.578
316.1	3.574
316.43	3.554
316.76	3.541
317.09	3.521
317.42	3.504
317.75	3.492
318.08	3.48
318.4	3.468
318.73	3.455
319.06	3.443
319.39	3.418
319.72	3.398
320.05	3.377
320.38	3.365
320.71	3.337
321.04	3.32
321.37	3.291
321.7	3.271
322.02	3.267
322.35	3.238
322.68	3.205
323.01	3.115
323.34	3.062
323.67	3.021
324	2.939
324.33	2.857
324.66	2.829
324.99	2.775
326.3	2.661
326.63	2.657
326.96	2.648
327.62	2.558
327.95	2.468
328.28	2.444
328.61	2.354
328.94	2.28
329.27	2.239
329.59	2.198
329.92	2.075
330.25	2.034
330.58	1.993
330.91	1.907
331.24	1.846
331.57	1.829
331.9	1.756
332.23	1.686
332.56	1.621
332.89	1.584
333.21	1.506
333.54	1.416
333.87	1.403
334.2	1.305
334.53	1.26
334.86	1.211
335.19	1.145
335.52	1.068
335.85	1.006
336.18	0.969
336.51	0.912
336.84	0.801
337.16	0.777
338.81	0.29
