Uv/Vis Spectrum: 2'-Nitrobenzanilide
Formula: C13H10N2O3
CAS: 728-90-5
Melting point: 92-93
Instrument: Unicam SP 500
Origin: INSTITUTE OF ENERGY PROBLEMS OF CHEMICAL PHYSICS, RAS
Wavelength (nm)	Logarithm epsilon
212.73	4.25
213.91	4.233
214.91	4.209
216.25	4.192
217.43	4.172
218.77	4.155
220.11	4.142
221.45	4.128
222.96	4.122
224.46	4.112
225.97	4.108
227.48	4.108
228.99	4.118
230.33	4.132
231.5	4.149
232.67	4.165
233.85	4.182
235.02	4.199
236.36	4.209
237.7	4.226
239.21	4.236
240.55	4.246
241.89	4.256
243.4	4.263
244.74	4.273
246.25	4.276
247.75	4.28
249.26	4.28
250.77	4.276
252.28	4.273
253.79	4.27
255.29	4.26
256.8	4.253
258.31	4.243
259.65	4.229
260.99	4.219
262.33	4.202
263.67	4.189
265.01	4.172
266.35	4.159
267.53	4.142
268.87	4.125
270.04	4.108
271.21	4.091
272.39	4.071
273.56	4.051
274.56	4.031
275.74	4.014
276.91	3.994
277.91	3.974
278.92	3.95
280.09	3.93
281.27	3.91
282.27	3.886
283.28	3.866
284.28	3.842
285.29	3.822
286.29	3.799
287.47	3.778
288.3	3.755
289.14	3.731
289.98	3.708
290.98	3.684
291.99	3.661
292.83	3.637
293.83	3.614
294.67	3.59
295.68	3.566
296.68	3.546
297.52	3.519
298.69	3.499
299.86	3.479
300.87	3.459
302.04	3.439
303.22	3.418
304.56	3.402
305.9	3.385
307.24	3.371
308.75	3.361
310.25	3.354
311.69	3.355
313.1	3.358
314.78	3.365
316.19	3.372
317.73	3.38
319.3	3.388
320.76	3.396
322.15	3.408
323.66	3.418
325.17	3.428
326.54	3.437
328.01	3.445
329.36	3.455
330.72	3.466
332.2	3.476
333.54	3.486
335.05	3.492
336.56	3.502
338.12	3.511
339.58	3.516
341.08	3.522
342.43	3.526
343.93	3.529
345.39	3.534
346.95	3.536
348.46	3.54
349.96	3.543
351.47	3.543
352.92	3.542
354.65	3.538
356	3.536
357.5	3.533
359.01	3.529
360.52	3.526
361.92	3.518
363.37	3.509
364.81	3.502
366.22	3.492
367.56	3.479
368.9	3.469
370.41	3.459
371.75	3.445
372.92	3.428
374.26	3.415
375.6	3.398
376.94	3.388
378.28	3.371
379.62	3.354
380.96	3.338
381.97	3.317
383.14	3.301
384.15	3.277
385.32	3.26
386.49	3.24
387.67	3.22
388.5	3.196
389.68	3.176
390.68	3.156
391.52	3.132
392.52	3.112
393.53	3.092
394.37	3.068
395.21	3.041
396.21	3.018
397.05	2.991
398.05	2.971
398.89	2.944
399.9	2.92
400.57	2.893
401.41	2.87
402.24	2.843
402.75	2.816
403.58	2.792
404.42	2.769
405.09	2.742
405.93	2.715
406.77	2.688
407.6	2.665
408.28	2.638
409.11	2.614
409.78	2.587
410.45	2.56
411.29	2.533
411.96	2.506
412.8	2.483
413.47	2.456
414.31	2.429
414.98	2.402
415.65	2.375
416.32	2.348
417.16	2.321
417.66	2.294
418.5	2.271
419	2.244
419.84	2.217
420.51	2.19
421.18	2.163
421.68	2.136
422.18	2.109
422.85	2.082
423.36	2.055
424.19	2.029
424.7	1.998
425.37	1.971
426.04	1.944
426.63	1.913
427.21	1.887
427.71	1.86
428.38	1.833
428.88	1.806
429.55	1.78
430.23	1.753
430.73	1.726
431.23	1.699
431.73	1.672
432.4	1.645
432.91	1.618
433.74	1.591
434.25	1.564
434.75	1.537
435.42	1.51
435.92	1.48
436.42	1.453
437.1	1.426
437.6	1.399
438.1	1.372
