Uv/Vis Spectrum: Nicotinamide adenine dinucleotide trihydrate
Formula: C21H33N7O17P2
CAS: 7298-93-3
Instrument: Unicam SP 500
Origin: INSTITUTE OF ENERGY PROBLEMS OF CHEMICAL PHYSICS, RAS
Wavelength (nm)	Logarithm epsilon
188.07	4.665
188.14	4.665
188.22	4.665
188.29	4.665
188.37	4.665
188.45	4.665
188.52	4.665
188.6	4.665
188.67	4.665
188.75	4.665
188.82	4.665
188.9	4.667
188.98	4.667
189.05	4.667
189.13	4.667
189.2	4.667
189.43	4.656
189.89	4.656
190.35	4.654
190.81	4.65
191.28	4.646
191.75	4.637
192.22	4.633
192.69	4.624
193.17	4.616
193.64	4.607
194.12	4.597
194.6	4.588
195.09	4.577
195.57	4.569
196.06	4.558
196.55	4.55
197.05	4.541
197.54	4.533
198.04	4.524
198.55	4.518
199.05	4.511
199.56	4.505
200.07	4.498
200.58	4.494
201.09	4.49
201.61	4.486
202.13	4.483
202.65	4.481
203.18	4.479
203.7	4.477
204.23	4.473
204.77	4.473
205.3	4.471
205.84	4.471
206.38	4.469
206.93	4.469
207.48	4.464
208.03	4.462
208.58	4.46
209.14	4.456
209.7	4.451
210.26	4.449
210.82	4.441
211.39	4.434
211.96	4.426
212.54	4.415
213.12	4.402
213.7	4.387
214.28	4.37
214.87	4.351
215.46	4.328
216.05	4.304
216.65	4.279
217.25	4.249
217.85	4.219
218.46	4.187
219.07	4.155
219.68	4.125
220.3	4.095
220.54	4.087
220.72	4.079
220.96	4.071
221.39	4.059
222.05	4.041
222.79	4.019
223.44	4.003
224.08	3.982
224.72	3.965
225.37	3.948
226.02	3.933
226.56	3.921
227.33	3.909
227.99	3.903
228.65	3.896
229.2	3.893
229.73	3.891
230.36	3.889
231.1	3.888
231.93	3.888
232.73	3.888
233.51	3.891
234.13	3.896
234.83	3.902
235.52	3.909
236.23	3.918
236.94	3.928
237.66	3.939
238.38	3.948
239.11	3.961
239.84	3.971
240.58	3.984
241.32	3.997
242.06	4.01
242.81	4.022
243.57	4.037
244.33	4.052
245.09	4.065
245.86	4.08
246.63	4.093
247.41	4.108
248.19	4.123
248.98	4.133
249.77	4.146
250.57	4.161
251.38	4.172
252.18	4.182
253	4.195
253.82	4.206
254.64	4.215
255.47	4.221
256.31	4.227
257.15	4.234
257.99	4.236
258.84	4.238
259.7	4.238
260.56	4.236
261.43	4.234
262.31	4.229
263.19	4.223
264.07	4.215
264.97	4.206
265.86	4.193
266.77	4.174
267.68	4.153
268.6	4.129
269.52	4.101
270.45	4.069
271.39	4.031
272.33	3.993
273.28	3.954
274.23	3.907
275.2	3.858
276.1	3.807
276.71	3.769
277.28	3.733
278.26	3.68
279.11	3.634
280.11	3.576
281.12	3.489
282.13	3.408
283.15	3.307
284.17	3.188
285.21	3.075
286.25	2.983
287.29	2.893
288.35	2.814
289.42	2.744
290.49	2.678
291.57	2.62
292.66	2.565
293.75	2.513
294.86	2.473
295.97	2.428
297.09	2.394
298.22	2.362
299.36	2.33
300.51	2.304
301.66	2.274
302.83	2.253
304	2.229
305.19	2.206
306.38	2.185
307.58	2.168
308.79	2.148
310.01	2.131
311.24	2.114
312.48	2.097
313.73	2.08
314.99	2.063
316.26	2.048
317.55	2.031
318.84	2.014
