Uv/Vis Spectrum: 1,1'-seleninylbis-benzene
Formula: C12H10OSe
CAS: 7304-91-8
Melting point: 112-113
Instrument: Unicam
Origin: INSTITUTE OF ENERGY PROBLEMS OF CHEMICAL PHYSICS, RAS
Wavelength (nm)	Logarithm epsilon
212.623	4.174
213.123	4.166
213.623	4.162
214.123	4.159
214.623	4.158
215.123	4.158
215.623	4.16
216.123	4.161
216.623	4.164
217.123	4.166
217.623	4.168
218.123	4.171
218.623	4.173
219.123	4.175
219.623	4.176
220.123	4.178
220.623	4.178
221.123	4.179
221.623	4.178
222.123	4.178
222.623	4.177
223.123	4.175
223.623	4.172
224.123	4.17
224.623	4.166
225.123	4.162
225.623	4.158
226.123	4.153
226.623	4.147
227.123	4.141
227.623	4.135
228.123	4.128
228.623	4.122
229.123	4.115
229.623	4.108
230.164	4.102
230.664	4.09
231.164	4.078
231.664	4.064
232.164	4.049
232.664	4.034
233.164	4.018
233.664	4.001
234.164	3.984
234.664	3.967
235.164	3.949
235.664	3.931
236.164	3.912
236.664	3.894
237.164	3.875
237.664	3.857
238.164	3.839
238.664	3.821
239.164	3.803
239.664	3.785
240.164	3.768
240.664	3.751
241.164	3.734
241.664	3.718
242.164	3.703
242.664	3.687
243.164	3.673
243.664	3.659
244.164	3.647
244.664	3.635
245.164	3.624
245.664	3.615
246.118	3.608
246.618	3.601
247.118	3.594
247.618	3.588
248.118	3.582
248.618	3.576
249.118	3.57
249.618	3.565
250.118	3.56
250.618	3.555
251.118	3.551
251.618	3.547
252.118	3.543
252.618	3.539
253.118	3.536
253.618	3.533
254.118	3.53
254.618	3.527
255.118	3.524
255.618	3.521
256.118	3.518
256.618	3.516
257.118	3.513
257.618	3.51
258.118	3.506
258.618	3.503
259.118	3.499
259.618	3.495
260.118	3.491
260.618	3.486
261.118	3.481
261.618	3.475
262.118	3.469
262.618	3.462
263.118	3.454
263.618	3.446
264.118	3.437
264.618	3.428
265.118	3.418
265.618	3.407
266.118	3.395
266.618	3.383
267.118	3.369
267.618	3.355
268.118	3.341
268.618	3.326
269.118	3.311
269.618	3.295
270.118	3.279
