Uv/Vis Spectrum: 3.5-dimethoxybenzaldehyde
Formula: C9H10O3
CAS: 7311-34-4
Melting point: 44
Instrument: Beckman DU
Origin: INSTITUTE OF ENERGY PROBLEMS OF CHEMICAL PHYSICS, RAS
Wavelength (nm)	Logarithm epsilon
215.38	4.414
216.91	4.407
218.26	4.394
219.95	4.373
221.13	4.356
222.15	4.332
223.16	4.308
224.02	4.287
224.85	4.261
225.53	4.234
226.07	4.211
226.68	4.184
227.3	4.153
227.96	4.129
228.57	4.097
229.08	4.07
229.5	4.042
230.09	4.002
230.6	3.975
231.11	3.947
231.65	3.911
232.29	3.862
232.63	3.832
232.97	3.801
233.3	3.77
233.64	3.74
234	3.706
234.32	3.668
234.66	3.637
234.99	3.607
235.33	3.576
236.01	3.532
236.52	3.505
237.02	3.477
237.53	3.45
238.2	3.414
239.05	3.372
239.9	3.344
240.57	3.317
241.93	3.3
243.45	3.304
245.14	3.324
245.98	3.348
247	3.372
247.84	3.395
248.86	3.43
249.7	3.457
250.55	3.484
251.39	3.511
252.11	3.534
252.91	3.562
253.76	3.59
254.61	3.614
255.62	3.637
257.28	3.679
258.49	3.709
259.51	3.733
260.86	3.766
262.38	3.797
263.57	3.815
264.92	3.828
266.44	3.818
267.96	3.808
269.48	3.815
270.83	3.828
272.19	3.842
273.6	3.837
274.72	3.811
275.4	3.784
276.31	3.744
277.43	3.695
277.94	3.668
278.61	3.641
279.29	3.614
280.14	3.581
281.32	3.552
282.16	3.525
283.01	3.501
284.7	3.436
285.54	3.413
286.22	3.385
286.73	3.358
287.23	3.331
287.72	3.286
288.25	3.246
288.59	3.215
289.09	3.184
289.43	3.154
289.97	3.125
290.78	3.092
291.46	3.065
292.14	3.038
293.5	3.005
295.01	2.994
296.53	2.997
297.88	3.007
300.25	3.031
301.26	3.051
302.4	3.073
303.46	3.092
305.42	3.133
306.34	3.154
307.35	3.177
308.43	3.199
309.55	3.222
310.73	3.239
311.92	3.259
313.1	3.276
314.28	3.293
315.47	3.31
316.82	3.324
318.34	3.331
319.86	3.341
321.38	3.348
322.9	3.344
324.43	3.344
325.95	3.341
327.47	3.338
328.99	3.331
330.34	3.317
331.71	3.3
333.39	3.276
334.74	3.259
335.75	3.239
336.77	3.215
338	3.188
339.13	3.154
339.98	3.126
340.65	3.099
341.69	3.068
342.68	3.028
343.36	3
343.87	2.973
344.55	2.939
345.11	2.912
345.88	2.888
346.74	2.861
347.42	2.833
348.54	2.792
349.61	2.755
350.46	2.728
351.14	2.701
351.97	2.669
352.74	2.639
353.35	2.615
354.18	2.588
354.94	2.552
355.96	2.514
356.72	2.486
357.39	2.459
358.07	2.431
358.57	2.404
359.25	2.377
359.93	2.35
360.6	2.322
361.28	2.295
361.96	2.268
362.46	2.241
363.31	2.203
363.98	2.176
364.49	2.149
365.68	2.077
366.35	2.05
367.03	2.023
367.7	1.995
368.72	1.955
369.23	1.927
369.9	1.9
370.99	1.855
371.76	1.815
372.27	1.788
372.78	1.757
373.28	1.726
373.96	1.682
374.3	1.651
374.8	1.624
375.31	1.593
375.82	1.553
376.33	1.525
376.66	1.495
377.17	1.467
