Uv/Vis Spectrum: 2,4,6-Tri-tert-butylphenol
Formula: C18H30O
CAS: 732-26-3
Melting point: 131
Boiling point: 278
Instrument: Unicam SP 700
Origin: INSTITUTE OF ENERGY PROBLEMS OF CHEMICAL PHYSICS, RAS
Wavelength (nm)	Logarithm epsilon
291.871	1.62366
291.682	1.66101
291.503	1.6961
291.334	1.72911
291.174	1.76024
291.022	1.7897
290.876	1.81767
290.736	1.84435
290.601	1.86994
290.471	1.89464
290.343	1.91865
290.217	1.94215
290.092	1.96535
289.967	1.98844
289.841	2.01162
289.714	2.03508
289.584	2.05903
289.45	2.08366
289.311	2.10916
289.167	2.13573
289.016	2.16357
288.858	2.19288
288.692	2.22385
288.516	2.25667
288.33	2.29156
288.133	2.32869
287.925	2.36827
287.703	2.4105
287.468	2.45556
287.218	2.50367
286.952	2.55501
286.671	2.60977
286.671	2.60977
286.526	2.61236
286.382	2.61489
286.238	2.6173
286.238	2.6173
286.118	2.65003
286.003	2.68296
285.889	2.71605
285.775	2.74929
285.657	2.78264
285.533	2.8161
285.402	2.84963
285.259	2.8832
285.104	2.91681
284.933	2.95041
284.745	2.98399
284.536	3.01753
284.305	3.051
284.049	3.08437
283.766	3.11763
283.453	3.15075
283.109	3.1837
282.731	3.21646
282.318	3.24901
281.866	3.28133
281.375	3.31338
281.375	3.31338
281.125	3.31852
280.952	3.32319
280.702	3.32764
280.702	3.32764
279.285	3.32471
278.671	3.31827
277.631	3.30446
277.631	3.30446
275.77	3.30553
273.935	3.30723
272.069	3.30436
272.069	3.30436
270.776	3.27415
269.592	3.24372
268.502	3.213
267.494	3.18192
266.552	3.15038
265.666	3.11833
264.821	3.08567
264.006	3.05232
263.209	3.01822
263.209	3.01822
262.921	3.00975
262.728	3.00161
262.602	2.99054
262.602	2.99054
260.993	2.9163
259.782	2.85977
258.892	2.8176
258.245	2.78644
257.772	2.76294
257.401	2.74376
257.064	2.72555
256.693	2.70497
256.693	2.70497
256.603	2.70362
256.505	2.70216
256.404	2.70065
256.404	2.70065
254.744	2.61497
253.744	2.56234
253.221	2.53373
253.007	2.52011
252.936	2.51244
252.936	2.51244
251.994	2.4826
251.36	2.44642
250.698	2.40938
249.681	2.37696
249.681	2.37696
249.147	2.35074
248.201	2.31986
247.39	2.29353
247.39	2.29353
245.817	2.29079
244.544	2.30834
243.553	2.33724
242.83	2.36857
242.36	2.3934
242.36	2.3934
241.36	2.47306
240.962	2.50323
240.818	2.50979
240.818	2.50979
240.538	2.54203
240.266	2.57426
240	2.60649
239.74	2.63871
239.486	2.67093
239.236	2.70314
238.99	2.73535
238.748	2.76754
238.509	2.79974
238.273	2.83192
238.038	2.8641
237.804	2.89627
237.571	2.92842
237.338	2.96057
237.105	2.99272
236.871	3.02485
236.635	3.05696
236.398	3.08907
236.157	3.12117
235.914	3.15326
235.666	3.18533
235.415	3.21739
235.159	3.24944
234.897	3.28147
234.63	3.31349
234.357	3.3455
234.077	3.37749
233.789	3.40946
233.789	3.40946
233.353	3.44693
232.915	3.4844
232.477	3.52186
232.04	3.55933
231.603	3.5968
231.603	3.5968
231.148	3.62209
230.432	3.65775
229.674	3.68295
229.674	3.68295
228.707	3.71811
227.639	3.751
226.445	3.7811
225.101	3.80786
223.583	3.83078
221.871	3.84931
221.871	3.84931
220.651	3.87948
218.908	3.90539
217.149	3.92337
217.149	3.92337
215.049	3.9324
212.995	3.94074
210.968	3.94977
210.968	3.94977
209.911	3.97765
208.992	4.00833
208.19	4.0411
207.485	4.07524
206.862	4.11004
206.3	4.14478
205.786	4.17875
205.786	4.17875
205.448	4.21215
205.139	4.2457
204.851	4.27937
204.579	4.31313
204.318	4.34694
204.063	4.38075
203.808	4.41454
203.548	4.44827
203.277	4.48189
202.991	4.51537
202.685	4.54868
202.352	4.58177
201.99	4.61461
201.592	4.64716
201.153	4.67939
201.153	4.67939
201.01	4.68483
200.814	4.6928
200.394	4.70639
200.394	4.70639
200.34	4.70641
200.281	4.70643
200.22	4.70645
200.22	4.70645
200.109	4.71052
199.998	4.71448
199.888	4.71839
199.888	4.71839
199.51	4.71851
199.132	4.71863
198.75	4.71875
198.75	4.71875
197.277	4.68776
196.304	4.64815
195.671	4.6006
195.671	4.6006
195.351	4.58233
195.028	4.55262
194.818	4.5278
194.818	4.5278
194.768	4.52645
194.716	4.52499
194.66	4.52348
194.66	4.52348
194.322	4.48286
193.984	4.44225
193.645	4.40164
193.305	4.36104
