Uv/Vis Spectrum: 1,3,6,7-tetramethyl-2,4(1H),3H-pteridinedione-5-oxide
Formula: C10H12N4O3
CAS: 7348-39-2
Melting point: 196
Instrument: unknown
Origin: INSTITUTE OF ENERGY PROBLEMS OF CHEMICAL PHYSICS, RAS
Wavelength (nm)	Logarithm epsilon
224.166	4.176
225.166	4.172
226.166	4.177
227.166	4.187
228.166	4.202
229.166	4.22
230.166	4.241
231.166	4.262
232.166	4.284
233.166	4.306
234.166	4.326
235.166	4.346
236.166	4.363
237.166	4.379
238.166	4.392
239.166	4.402
240.166	4.409
241.166	4.414
242.166	4.415
243.166	4.412
244.166	4.407
245.166	4.398
246.166	4.385
246.838	4.372
247.838	4.355
248.838	4.334
249.838	4.309
250.838	4.281
251.838	4.25
252.838	4.217
253.838	4.182
254.838	4.147
255.838	4.111
256.838	4.075
257.838	4.038
258.838	4.001
259.838	3.964
260.838	3.927
261.838	3.888
262.838	3.847
263.838	3.803
264.737	3.761
265.737	3.711
266.737	3.669
267.737	3.636
268.737	3.611
269.737	3.596
270.737	3.589
271.737	3.589
272.737	3.595
273.737	3.607
274.737	3.622
275.737	3.639
276.737	3.656
277.737	3.673
278.737	3.689
279.737	3.702
280.011	3.705
281.011	3.717
282.011	3.728
283.011	3.738
284.011	3.747
285.011	3.755
286.011	3.761
287.011	3.767
288.011	3.771
289.011	3.773
290.011	3.772
291.011	3.769
292.011	3.763
293.011	3.754
294.011	3.741
295.011	3.726
296.011	3.709
297.011	3.689
298.011	3.669
299.011	3.648
300.011	3.629
301.194	3.607
302.194	3.581
303.194	3.55
304.194	3.515
305.194	3.478
306.194	3.438
307.194	3.395
307.638	3.376
308.638	3.34
309.638	3.309
310.638	3.284
311.638	3.265
312.638	3.251
313.638	3.243
314.638	3.24
315.638	3.243
316.638	3.249
317.638	3.26
318.638	3.273
319.638	3.289
320.638	3.306
321.638	3.325
322.638	3.344
323.638	3.364
324.638	3.383
325.638	3.403
326.548	3.416
327.548	3.443
328.548	3.469
329.548	3.494
330.548	3.519
331.548	3.542
332.548	3.565
333.548	3.587
334.548	3.609
335.548	3.631
336.548	3.651
337.548	3.672
338.548	3.691
339.548	3.71
340.548	3.727
341.548	3.744
342.548	3.759
343.548	3.773
344.548	3.786
345.548	3.797
346.548	3.807
347.548	3.815
348.548	3.822
349.548	3.827
350.548	3.831
351.548	3.834
352.548	3.836
352.8	3.838
353.8	3.835
354.8	3.834
355.8	3.833
356.8	3.83
357.8	3.825
358.8	3.818
359.8	3.807
360.8	3.793
361.8	3.777
362.8	3.758
363.8	3.737
364.8	3.715
365.8	3.691
366.8	3.666
367.8	3.64
368.8	3.613
369.8	3.584
370.8	3.551
371.8	3.515
372.8	3.472
373.8	3.42
374.8	3.356
375.8	3.275
376.188	3.239
