Uv/Vis Spectrum: 6H-Purin-6-one, 2-amino-1,7-dihydro-
Formula: C5H5N5O
CAS: 73-40-5
Melting point: 365 dec.
Instrument: Unicam SP 500
Origin: INSTITUTE OF ENERGY PROBLEMS OF CHEMICAL PHYSICS, RAS
Wavelength (nm)	Logarithm epsilon
188.08	4.223
188.16	4.223
188.24	4.223
188.31	4.225
188.39	4.225
188.47	4.225
188.54	4.225
188.62	4.225
188.7	4.228
188.77	4.228
188.85	4.228
188.93	4.228
189	4.228
189.08	4.23
189.39	4.234
189.85	4.243
190.32	4.249
190.79	4.257
191.26	4.266
191.74	4.275
192.21	4.281
192.69	4.287
193.17	4.296
193.66	4.302
194.14	4.307
194.63	4.313
195.12	4.317
195.62	4.32
196.11	4.324
196.61	4.326
197.11	4.326
197.62	4.326
198.12	4.326
198.63	4.322
199.14	4.32
199.66	4.315
200.17	4.305
200.69	4.298
201.22	4.29
201.74	4.283
202.27	4.272
202.8	4.26
203.33	4.247
203.87	4.234
204.41	4.223
204.95	4.21
205.49	4.193
206.04	4.174
206.59	4.159
207.14	4.14
207.7	4.118
208.26	4.099
208.82	4.082
209.39	4.061
209.96	4.046
210.53	4.026
211.1	4.007
211.68	3.994
212.26	3.977
212.85	3.964
213.43	3.949
214.02	3.932
214.62	3.915
215.22	3.9
215.82	3.881
216.42	3.862
217.03	3.838
217.64	3.817
218.25	3.793
218.87	3.77
219.49	3.746
220.12	3.718
220.75	3.695
221.38	3.673
222.01	3.656
222.65	3.643
223.29	3.635
223.94	3.631
224.59	3.628
225.25	3.633
225.9	3.637
226.57	3.646
227.23	3.656
227.9	3.669
228.58	3.684
229.25	3.703
229.93	3.718
230.62	3.735
231.31	3.755
232	3.774
232.7	3.795
233.4	3.815
234.11	3.834
234.82	3.849
235.54	3.868
236.26	3.887
236.98	3.907
237.71	3.922
238.44	3.939
239.18	3.952
239.92	3.964
240.67	3.979
241.42	3.99
242.18	3.999
242.94	4.003
243.7	4.011
244.47	4.014
245.25	4.018
246.03	4.018
246.81	4.02
247.6	4.018
248.4	4.014
249.2	4.009
250.01	4.001
250.82	3.992
251.63	3.984
252.45	3.971
253.28	3.958
254.11	3.945
254.95	3.928
255.79	3.915
256.64	3.9
257.5	3.887
258.36	3.874
259.22	3.866
260.1	3.857
260.97	3.849
261.86	3.847
262.75	3.845
263.64	3.847
264.55	3.849
265.45	3.855
266.37	3.859
267.29	3.866
268.22	3.872
269.15	3.877
270.09	3.885
271.04	3.889
271.99	3.894
272.95	3.896
273.92	3.898
274.89	3.9
275.87	3.898
276.86	3.894
277.85	3.887
278.86	3.879
279.86	3.868
280.88	3.855
281.91	3.834
282.94	3.815
283.98	3.793
285.02	3.765
286.08	3.731
287.14	3.699
288.21	3.658
289.29	3.611
290.37	3.558
291.47	3.496
292.57	3.425
293.68	3.359
294.8	3.29
295.93	3.215
297.07	3.143
298.29	3.065
299.4	2.991
300.39	2.921
301.44	2.84
302.42	2.763
303.41	2.679
304.11	2.608
304.64	2.556
305.08	2.509
306.03	2.419
306.61	2.355
307.25	2.289
308.52	2.156
309.23	2.071
309.99	1.976
310.51	1.906
311.42	1.803
