Uv/Vis Spectrum: N-[2-(aminosulfonyl)phenyl]-3-phenyl-2-propenamide
Formula: C15H14N2O3S
CAS: 73676-80-9
Melting point: 220-221
Instrument: Specord UV-Vis
Origin: INSTITUTE OF ENERGY PROBLEMS OF CHEMICAL PHYSICS, RAS
Wavelength (nm)	Logarithm epsilon
203.387	4.395
204.887	4.4
206.387	4.402
207.887	4.4
209.387	4.395
210.887	4.384
212.387	4.37
213.887	4.353
215.387	4.335
216.444	4.315
218.083	4.301
219.583	4.298
221.083	4.277
222.583	4.242
224.083	4.199
225.583	4.15
227.083	4.097
228.583	4.04
230.083	3.981
231.583	3.919
233.083	3.854
234.583	3.788
236.083	3.722
237.583	3.661
238.575	3.626
239.359	3.6
240.859	3.556
242.359	3.531
243.859	3.518
245.359	3.512
246.859	3.511
248.359	3.516
249.859	3.527
251.359	3.545
252.859	3.571
254.359	3.604
255.81	3.638
257.31	3.671
258.81	3.703
260.31	3.735
261.81	3.767
263.31	3.799
264.81	3.831
266.31	3.863
267.81	3.894
269.31	3.926
270.81	3.957
272.31	3.989
273.81	4.02
275.31	4.051
276.81	4.083
278.31	4.115
279.81	4.146
281.31	4.179
282.81	4.211
284.31	4.244
285.81	4.276
287.31	4.307
288.492	4.326
289.992	4.362
291.492	4.39
292.992	4.41
294.492	4.424
295.992	4.434
297.492	4.44
298.992	4.444
300.492	4.447
301.992	4.449
303.492	4.449
304.992	4.448
306.492	4.444
307.992	4.436
309.492	4.423
311.058	4.396
312.558	4.369
314.058	4.342
315.558	4.313
317.058	4.279
318.558	4.241
320.058	4.197
321.558	4.148
323.058	4.095
324.558	4.04
326.058	3.983
327.558	3.926
329.041	3.871
330.541	3.812
332.041	3.754
333.541	3.698
335.041	3.645
336.541	3.597
338.041	3.551
339.541	3.504
341.041	3.452
