Uv/Vis Spectrum: 1-t-Butyl-4-ethylbenzene
Formula: C12H18
CAS: 7364-19-4
Instrument: unknown
Origin: INSTITUTE OF ENERGY PROBLEMS OF CHEMICAL PHYSICS, RAS
Wavelength (nm)	Logarithm epsilon
230.59	2.005
230.6	1.995
230.69	1.967
230.76	1.936
230.93	1.891
231.1	1.854
231.27	1.82
231.44	1.796
231.61	1.773
231.78	1.747
231.95	1.723
232.12	1.698
232.29	1.679
232.46	1.656
232.63	1.639
232.8	1.618
232.97	1.6
233.14	1.585
233.31	1.571
233.47	1.556
233.64	1.545
233.81	1.535
233.98	1.524
234.15	1.513
234.29	1.507
234.41	1.502
234.68	1.495
234.83	1.493
235	1.491
235.17	1.49
235.34	1.49
235.51	1.49
235.68	1.49
235.86	1.49
236.03	1.492
236.17	1.493
236.34	1.495
236.54	1.499
236.69	1.501
236.86	1.507
237.06	1.516
237.2	1.524
237.36	1.531
237.54	1.54
237.71	1.551
237.89	1.558
238.06	1.567
238.22	1.576
238.38	1.583
238.56	1.59
238.75	1.602
238.9	1.609
239.1	1.621
239.22	1.63
239.41	1.639
239.58	1.648
239.75	1.657
239.92	1.664
240.07	1.674
240.29	1.687
240.42	1.695
240.63	1.705
240.76	1.713
240.93	1.723
241.1	1.734
241.25	1.743
241.45	1.753
241.61	1.76
241.78	1.769
241.95	1.779
242.12	1.788
242.32	1.798
242.47	1.808
242.63	1.817
242.8	1.828
242.97	1.839
243.14	1.849
243.31	1.857
243.47	1.867
243.64	1.877
243.81	1.884
243.98	1.894
244.15	1.903
244.32	1.914
244.49	1.923
244.66	1.932
244.83	1.938
245	1.947
245.17	1.957
245.34	1.967
245.51	1.977
245.68	1.984
245.85	1.996
246.02	2.003
246.19	2.014
246.36	2.021
246.53	2.029
246.69	2.038
246.86	2.046
247.03	2.054
247.2	2.063
247.37	2.072
247.54	2.08
247.71	2.092
247.88	2.099
248.05	2.106
248.22	2.116
248.39	2.125
248.56	2.132
248.73	2.141
248.9	2.149
249.07	2.157
249.24	2.164
249.41	2.172
249.58	2.181
249.75	2.189
249.92	2.197
250.08	2.205
250.25	2.212
250.42	2.217
250.59	2.224
250.76	2.228
250.93	2.233
251.1	2.234
251.27	2.233
251.44	2.232
251.61	2.23
251.78	2.228
251.95	2.227
252.12	2.225
252.29	2.224
252.46	2.225
252.63	2.227
252.8	2.23
252.97	2.233
253.14	2.237
253.31	2.243
253.47	2.249
253.64	2.256
253.81	2.265
253.99	2.272
254.15	2.28
254.32	2.29
254.49	2.298
254.66	2.308
254.83	2.317
255	2.326
255.17	2.335
255.34	2.344
255.51	2.353
255.68	2.36
255.85	2.368
256.02	2.379
256.19	2.388
256.36	2.395
256.53	2.402
256.69	2.407
256.86	2.414
257.03	2.418
257.2	2.422
257.37	2.426
257.54	2.428
257.71	2.429
257.88	2.428
258.05	2.428
258.22	2.425
258.39	2.422
258.56	2.418
258.73	2.415
258.9	2.41
259.07	2.405
259.24	2.4
259.41	2.396
259.58	2.393
259.75	2.391
259.92	2.39
260.08	2.39
260.25	2.391
260.42	2.393
260.59	2.395
260.76	2.397
260.93	2.402
261.1	2.407
261.27	2.414
261.44	2.422
261.61	2.427
261.78	2.436
261.95	2.446
262.12	2.46
262.27	2.479
262.46	2.501
262.67	2.525
262.8	2.54
262.97	2.553
263.14	2.567
263.31	2.577
263.47	2.581
263.64	2.58
263.81	2.576
263.98	2.571
264.15	2.563
264.32	2.554
264.49	2.542
264.66	2.534
264.83	2.526
265	2.522
265.17	2.518
265.34	2.513
265.51	2.508
265.68	2.505
265.85	2.5
266.02	2.495
266.19	2.489
266.36	2.481
266.53	2.474
266.69	2.461
266.86	2.449
267.03	2.437
267.2	2.424
267.37	2.414
267.54	2.402
267.71	2.388
267.86	2.374
268.02	2.361
268.22	2.344
268.39	2.331
268.56	2.318
268.69	2.31
268.9	2.301
269.07	2.296
269.24	2.294
269.41	2.293
269.58	2.294
269.75	2.296
269.92	2.303
270.08	2.312
270.25	2.33
270.42	2.355
270.59	2.388
270.76	2.417
270.93	2.454
271.1	2.487
271.27	2.521
271.39	2.545
271.49	2.564
271.58	2.58
271.65	2.59
271.74	2.595
271.85	2.598
271.96	2.599
272.09	2.597
272.19	2.591
272.27	2.579
272.37	2.547
272.48	2.511
272.63	2.473
272.8	2.435
272.97	2.392
273.14	2.345
273.31	2.292
273.47	2.232
273.64	2.173
273.81	2.115
273.98	2.075
274.15	2.021
274.32	1.977
274.49	1.938
274.66	1.896
274.83	1.864
275	1.833
275.17	1.808
275.34	1.779
275.51	1.75
275.68	1.727
275.85	1.698
276.02	1.676
276.19	1.643
276.36	1.618
276.53	1.595
276.69	1.571
276.86	1.545
277.03	1.524
277.2	1.501
277.37	1.472
277.54	1.446
277.71	1.412
277.88	1.39
278.05	1.367
278.22	1.342
278.39	1.317
278.56	1.289
278.73	1.26
278.9	1.239
279.07	1.206
279.24	1.183
279.41	1.158
279.58	1.132
279.75	1.118
279.92	1.089
