Uv/Vis Spectrum: 1,1'-Biphenyl, 3,4'-dimethyl-
Formula: C14H14
CAS: 7383-90-6
Melting point: 14.5
Boiling point: 153/ 15 mm
Instrument: unknown
Origin: INSTITUTE OF ENERGY PROBLEMS OF CHEMICAL PHYSICS, RAS
Wavelength (nm)	Logarithm epsilon
220.08	4.09
220.13	4.088
220.22	4.081
220.26	4.078
220.31	4.072
220.39	4.064
220.48	4.054
220.6	4.042
220.71	4.032
220.97	4.008
221.27	3.98
221.56	3.957
221.86	3.937
222.16	3.917
222.45	3.896
222.75	3.879
223.04	3.858
223.34	3.839
223.64	3.824
223.93	3.809
224.23	3.794
224.52	3.783
224.82	3.768
225.12	3.759
225.41	3.748
225.71	3.742
226	3.735
226.3	3.731
226.6	3.728
226.89	3.728
227.19	3.727
227.48	3.728
227.78	3.731
228.08	3.735
228.37	3.737
228.67	3.743
228.96	3.748
229.26	3.752
229.56	3.761
229.85	3.766
230.15	3.772
230.44	3.781
230.74	3.788
231.04	3.797
231.33	3.806
231.63	3.813
231.92	3.821
232.22	3.831
232.52	3.837
232.81	3.848
233.11	3.856
233.4	3.866
233.7	3.873
234	3.883
234.29	3.892
234.59	3.902
234.88	3.912
235.18	3.921
235.48	3.931
235.77	3.94
236.07	3.951
236.36	3.961
236.66	3.972
236.96	3.983
237.25	3.99
237.55	4.001
237.84	4.01
238.14	4.02
238.44	4.029
238.73	4.039
239.03	4.046
239.32	4.056
239.62	4.066
239.92	4.074
240.21	4.085
240.51	4.092
240.8	4.101
241.1	4.107
241.4	4.114
241.69	4.121
241.99	4.127
242.28	4.135
242.58	4.141
242.88	4.147
243.17	4.153
243.47	4.159
243.76	4.165
244.06	4.172
244.35	4.176
244.65	4.182
244.95	4.187
245.24	4.192
245.54	4.197
245.83	4.199
246.13	4.206
246.43	4.209
246.72	4.213
247.02	4.217
247.31	4.221
247.61	4.224
247.91	4.227
248.2	4.231
248.43	4.234
248.79	4.238
249.07	4.24
249.39	4.243
249.68	4.246
249.98	4.247
250.25	4.249
250.57	4.25
250.86	4.252
251.18	4.253
251.47	4.254
251.75	4.256
252.05	4.257
252.35	4.257
252.64	4.258
252.94	4.258
253.23	4.258
253.53	4.258
253.83	4.258
254.12	4.257
254.42	4.256
254.71	4.254
255.03	4.253
255.31	4.251
255.53	4.25
255.82	4.248
256.19	4.246
256.49	4.244
256.79	4.242
257.07	4.239
257.38	4.236
257.66	4.234
257.92	4.232
258.17	4.229
258.56	4.226
258.8	4.223
259.12	4.219
259.45	4.215
259.75	4.211
260.04	4.207
260.34	4.204
260.63	4.197
260.93	4.193
261.23	4.188
261.52	4.183
261.82	4.178
262.11	4.173
262.41	4.166
262.71	4.161
263	4.154
263.3	4.147
263.59	4.142
263.89	4.136
264.19	4.128
264.48	4.122
264.78	4.114
265.07	4.107
265.37	4.1
265.67	4.09
265.96	4.083
266.26	4.075
266.55	4.066
266.85	4.059
267.15	4.05
267.44	4.043
267.74	4.035
268.03	4.026
268.33	4.019
268.63	4.009
268.92	4.003
269.22	3.993
269.51	3.986
269.81	3.976
270.11	3.967
270.4	3.96
270.7	3.951
270.99	3.943
271.29	3.936
271.59	3.926
271.88	3.92
272.18	3.91
272.47	3.902
272.77	3.895
273.07	3.886
273.36	3.878
273.66	3.869
273.95	3.858
274.25	3.849
274.54	3.843
274.84	3.833
275.14	3.823
275.43	3.816
275.73	3.806
276.02	3.798
276.32	3.788
276.62	3.781
276.91	3.772
277.21	3.763
277.5	3.755
277.8	3.747
278.1	3.736
278.39	3.729
278.69	3.718
278.98	3.71
