Uv/Vis Spectrum: 3,4,5'-trimethyl-1,1'-biphenyl
Formula: C15H16
CAS: 7383-87-1
Boiling point: 43.5-44
Instrument: unknown
Origin: INSTITUTE OF ENERGY PROBLEMS OF CHEMICAL PHYSICS, RAS
Wavelength (nm)	Logarithm epsilon
204.687	4.489
205.687	4.512
206.687	4.523
207.687	4.527
208.687	4.525
209.687	4.52
210.687	4.512
211.687	4.501
212.687	4.488
213.687	4.471
214.687	4.449
215.687	4.422
216.687	4.389
217.687	4.349
218.687	4.302
219.687	4.25
220.687	4.194
221.687	4.136
222.674	4.081
223.674	4.027
224.674	3.974
225.674	3.925
226.674	3.879
227.674	3.839
228.674	3.803
229.674	3.771
230.674	3.743
231.674	3.719
232.674	3.7
233.674	3.686
234.674	3.681
235.674	3.687
236.651	3.71
237.651	3.74
238.651	3.783
239.651	3.825
240.651	3.86
241.651	3.886
242.265	3.898
243.265	3.937
244.265	3.971
245.265	4
246.265	4.027
247.265	4.05
248.265	4.071
249.265	4.089
250.265	4.106
251.265	4.12
252.265	4.133
253.265	4.143
254.265	4.152
255.265	4.158
256.265	4.162
257.265	4.164
258.265	4.163
259.265	4.16
260.265	4.154
261.265	4.147
262.265	4.136
263.265	4.124
264.265	4.11
265.265	4.093
266.265	4.075
267.265	4.055
268.265	4.035
269.265	4.013
270.265	3.99
271.265	3.966
272.265	3.942
273.265	3.918
274.265	3.893
275.265	3.867
276.265	3.841
277.265	3.813
278.23	3.784
279.23	3.748
280.23	3.713
281.23	3.676
282.23	3.637
283.23	3.595
284.23	3.549
285.23	3.499
286.23	3.445
287.23	3.385
288.23	3.319
289.23	3.247
290.23	3.169
291.23	3.085
