Uv/Vis Spectrum: 4-t-Butyl-o-xylene
Formula: C12H18
CAS: 7397-06-0
Melting point: - 27
Boiling point: 89/ 14 mm
Instrument: unknown
Origin: INSTITUTE OF ENERGY PROBLEMS OF CHEMICAL PHYSICS, RAS
Wavelength (nm)	Logarithm epsilon
230.81	2.022
230.84	1.995
230.91	1.955
230.97	1.919
231.06	1.894
231.15	1.869
231.22	1.849
231.3	1.83
231.4	1.806
231.48	1.779
231.57	1.754
231.65	1.737
231.74	1.716
231.82	1.691
231.9	1.677
231.97	1.66
232.08	1.639
232.14	1.622
232.25	1.603
232.34	1.586
232.49	1.568
232.68	1.546
232.82	1.53
232.98	1.513
233.2	1.493
233.43	1.47
233.76	1.443
234.15	1.417
234.53	1.402
234.91	1.39
235.29	1.382
235.68	1.38
236.04	1.382
236.38	1.388
236.77	1.4
237.2	1.417
237.6	1.435
237.92	1.451
238.3	1.471
238.64	1.488
238.99	1.51
239.35	1.531
239.66	1.55
240	1.57
240.36	1.592
240.64	1.613
240.96	1.633
241.27	1.655
241.61	1.675
241.91	1.694
242.2	1.713
242.5	1.73
242.84	1.747
243.18	1.763
243.47	1.779
243.77	1.797
244.11	1.811
244.41	1.825
244.7	1.842
244.96	1.857
245.25	1.872
245.55	1.885
245.85	1.896
246.12	1.909
246.4	1.922
246.65	1.935
246.91	1.949
247.16	1.962
247.46	1.974
247.71	1.987
247.95	1.998
248.22	2.011
248.47	2.025
248.69	2.037
248.9	2.049
249.15	2.06
249.41	2.071
249.62	2.082
249.79	2.094
250	2.106
250.25	2.115
250.47	2.126
250.63	2.137
250.85	2.147
251.06	2.158
251.23	2.168
251.44	2.178
251.61	2.188
251.86	2.196
252.08	2.205
252.29	2.213
252.54	2.221
252.75	2.23
252.92	2.238
253.13	2.246
253.35	2.254
253.56	2.262
253.77	2.27
253.98	2.278
254.11	2.286
254.32	2.292
254.45	2.3
254.66	2.306
254.83	2.314
255.04	2.32
255.25	2.327
255.47	2.334
255.63	2.34
255.76	2.347
255.97	2.354
256.19	2.359
256.4	2.366
256.61	2.372
256.82	2.378
257.03	2.384
257.16	2.391
257.41	2.396
257.63	2.402
257.84	2.407
258.05	2.412
258.26	2.418
258.52	2.423
258.73	2.429
258.94	2.433
259.19	2.438
259.41	2.443
259.66	2.447
259.91	2.451
260.19	2.456
260.42	2.46
260.65	2.465
260.89	2.47
261.18	2.475
261.41	2.479
261.57	2.482
261.74	2.487
261.89	2.493
262.01	2.498
262.1	2.502
262.2	2.508
262.33	2.513
262.46	2.518
262.58	2.523
262.67	2.528
262.75	2.533
262.84	2.538
262.92	2.542
263.05	2.547
263.13	2.552
263.22	2.556
263.35	2.561
263.43	2.566
263.52	2.57
263.64	2.574
263.77	2.579
263.9	2.583
264.08	2.588
264.25	2.593
264.41	2.596
264.6	2.597
264.79	2.596
265.08	2.593
265.3	2.589
265.42	2.586
265.55	2.582
265.68	2.578
265.8	2.574
265.94	2.57
266.1	2.566
266.24	2.563
266.44	2.557
266.57	2.553
266.72	2.549
266.86	2.544
266.99	2.54
267.12	2.536
267.29	2.532
267.42	2.527
267.54	2.522
267.71	2.518
267.88	2.513
268.01	2.509
268.18	2.504
268.35	2.5
268.52	2.495
268.64	2.49
268.81	2.485
269.02	2.48
269.16	2.476
269.36	2.471
269.55	2.466
269.76	2.46
269.99	2.456
270.3	2.453
270.68	2.455
270.89	2.46
271.02	2.466
271.1	2.472
271.18	2.477
271.3	2.485
271.38	2.491
271.45	2.495
271.51	2.5
271.57	2.504
271.65	2.509
271.74	2.514
271.81	2.52
271.89	2.525
271.95	2.529
272.01	2.534
272.07	2.539
272.14	2.544
272.2	2.549
272.29	2.553
272.4	2.558
272.5	2.562
272.6	2.567
272.71	2.57
272.75	2.57
272.78	2.571
272.82	2.571
272.86	2.572
272.9	2.572
272.97	2.572
273.01	2.572
273.05	2.572
273.09	2.572
273.15	2.572
273.22	2.572
273.3	2.572
273.39	2.571
273.47	2.57
273.56	2.567
273.64	2.565
273.73	2.56
273.81	2.554
273.9	2.547
273.98	2.535
274.05	2.525
274.15	2.51
274.23	2.499
274.3	2.487
274.41	2.472
274.47	2.461
274.57	2.446
274.66	2.431
274.73	2.417
274.83	2.4
274.9	2.387
275	2.371
275.08	2.354
275.17	2.34
275.25	2.323
275.35	2.306
275.42	2.291
275.51	2.273
275.6	2.253
275.68	2.238
275.76	2.219
275.83	2.201
275.93	2.182
276.02	2.165
276.1	2.146
276.18	2.125
276.27	2.103
276.35	2.084
276.44	2.062
276.52	2.037
276.61	2.011
276.69	1.993
276.78	1.968
276.86	1.941
276.92	1.923
277.01	1.898
277.12	1.87
277.2	1.842
277.29	1.811
277.37	1.779
277.46	1.754
277.54	1.73
277.61	1.706
277.7	1.678
277.79	1.643
277.88	1.613
277.97	1.578
278.05	1.544
278.13	1.512
278.22	1.481
278.3	1.444
278.39	1.41
278.47	1.372
278.56	1.331
278.64	1.286
