Uv/Vis Spectrum: Phenanthrene, 2,4,5,7-tetramethyl-
Formula: C18H18
CAS: 7396-38-5
Melting point: 112-114
Instrument: Unicam SR 700
Origin: INSTITUTE OF ENERGY PROBLEMS OF CHEMICAL PHYSICS, RAS
Wavelength (nm)	Logarithm epsilon
205.95	4.259
206.04	4.259
206.13	4.261
206.22	4.261
206.31	4.263
206.4	4.266
206.49	4.266
206.58	4.268
206.67	4.268
206.77	4.27
206.86	4.27
207.04	4.268
207.4	4.272
207.77	4.278
208.13	4.287
208.5	4.291
208.87	4.297
209.24	4.302
209.61	4.31
209.99	4.312
210.36	4.319
210.74	4.321
211.12	4.323
211.49	4.332
211.87	4.334
212.26	4.334
212.64	4.336
213.02	4.34
213.41	4.342
213.79	4.342
214.18	4.34
214.57	4.336
214.96	4.334
215.36	4.329
215.75	4.321
216.15	4.312
216.54	4.304
216.94	4.293
217.34	4.283
217.74	4.27
218.15	4.257
218.55	4.244
218.96	4.227
219.36	4.214
219.77	4.195
220.18	4.18
220.59	4.163
221.01	4.151
221.42	4.14
221.84	4.129
222.26	4.121
222.68	4.112
223.1	4.11
223.52	4.108
223.95	4.102
224.37	4.102
224.8	4.102
225.23	4.102
225.66	4.102
226.09	4.102
226.53	4.102
226.96	4.102
227.4	4.102
227.84	4.1
228.28	4.1
228.72	4.1
229.17	4.1
229.61	4.102
230.06	4.102
230.51	4.108
230.96	4.11
231.42	4.112
231.87	4.119
232.33	4.125
232.79	4.123
233.25	4.114
233.71	4.1
234.17	4.082
234.64	4.059
235.11	4.048
235.58	4.04
236.05	4.036
236.52	4.029
237	4.029
237.48	4.029
237.96	4.038
238.44	4.044
238.92	4.055
239.4	4.068
239.89	4.08
240.38	4.097
240.87	4.114
241.36	4.136
241.86	4.161
242.36	4.185
242.86	4.206
243.36	4.232
243.86	4.255
244.37	4.278
244.87	4.3
245.38	4.321
245.89	4.342
246.41	4.363
246.92	4.385
247.44	4.404
247.96	4.423
248.49	4.442
249.01	4.464
249.54	4.483
250.07	4.498
250.6	4.519
251.13	4.538
251.67	4.559
252.21	4.578
252.75	4.593
253.29	4.613
253.83	4.625
254.38	4.64
254.93	4.657
255.48	4.67
256.04	4.683
256.6	4.693
257.16	4.704
257.72	4.717
258.28	4.725
258.85	4.736
259.42	4.742
259.99	4.747
260.57	4.749
261.14	4.755
261.72	4.755
262.3	4.755
262.89	4.755
263.48	4.749
264.07	4.747
264.66	4.74
265.25	4.734
265.85	4.723
266.45	4.704
267.06	4.674
267.66	4.647
268.27	4.621
268.88	4.596
269.5	4.572
270.12	4.551
270.74	4.527
271.36	4.504
271.98	4.485
272.61	4.461
273.25	4.442
273.88	4.419
274.52	4.398
275.16	4.372
275.8	4.344
276.45	4.315
277.1	4.285
277.75	4.251
278.41	4.217
279.07	4.176
279.73	4.134
280.39	4.091
281.06	4.059
281.73	4.027
282.41	4.004
283.08	3.982
283.77	3.968
284.45	3.957
285.14	3.955
285.83	3.955
286.52	3.955
287.22	3.959
287.92	3.97
288.63	3.98
289.34	3.985
290.05	3.982
290.76	3.98
291.48	3.968
292.2	3.953
292.93	3.938
293.66	3.933
294.39	3.927
295.13	3.927
295.87	3.931
296.61	3.936
297.36	3.948
298.11	3.974
298.87	3.997
299.63	4.016
300.39	4.029
301.16	4.042
301.93	4.053
302.71	4.057
303.49	4.053
304.27	4.051
305.06	4.036
305.85	3.989
306.64	3.965
307.44	3.961
308.25	3.963
309.05	3.968
309.87	3.98
310.68	4.004
311.5	4.027
312.33	4.046
313.16	4.065
313.99	4.085
314.83	4.087
315.67	4.087
316.52	4.061
317.37	4.008
318.23	3.951
319.01	3.885
319.95	3.794
320.83	3.712
321.7	3.61
322.58	3.51
323.47	3.406
324.36	3.295
325.25	3.191
326.15	3.088
327.05	2.967
327.96	2.884
328.88	2.803
329.8	2.731
330.72	2.65
331.65	2.618
332.59	2.586
333.53	2.554
334.48	2.531
335.43	2.507
336.38	2.492
337.35	2.482
338.31	2.471
339.29	2.462
340.27	2.462
341.25	2.467
342.24	2.477
343.24	2.488
344.24	2.497
345.25	2.509
346.26	2.514
347.28	2.514
348.31	2.507
349.34	2.503
350.38	2.488
351.42	2.473
352.47	2.445
353.53	2.405
354.59	2.373
355.66	2.343
356.74	2.32
357.82	2.301
358.91	2.282
360.01	2.271
361.11	2.262
362.22	2.254
363.33	2.243
364.46	2.228
365.59	2.201
366.72	2.171
367.87	2.128
369.02	2.079
370.18	2.022
371.34	1.956
372.52	1.856
373.7	1.76
374.88	1.668
376.08	1.566
376.74	1.512
377.28	1.464
377.65	1.422
378.19	1.358
378.8	1.296
