Uv/Vis Spectrum: Benzoic acid, 4-chloro-
Formula: C7H5ClO2
CAS: 74-11-3
Melting point: 150-152
Instrument: Unicam SP 700
Origin: INSTITUTE OF ENERGY PROBLEMS OF CHEMICAL PHYSICS, RAS
Wavelength (nm)	Logarithm epsilon
208.71	3.953
208.97	3.931
209.38	3.892
210.05	3.831
210.72	3.77
211.39	3.709
212.06	3.652
212.73	3.595
213.4	3.537
214.07	3.497
214.74	3.49
215.41	3.493
216.08	3.5
216.75	3.517
217.42	3.541
218.09	3.571
218.76	3.611
219.43	3.649
220.1	3.679
220.77	3.713
221.44	3.743
222.11	3.774
222.78	3.804
223.45	3.828
224.12	3.858
224.79	3.889
225.46	3.909
226.13	3.936
226.8	3.956
227.47	3.976
228.14	4
228.81	4.017
229.48	4.034
230.15	4.051
230.82	4.068
231.49	4.084
232.16	4.101
232.83	4.118
233.5	4.132
234.17	4.142
234.84	4.152
235.51	4.166
236.18	4.176
236.85	4.182
237.52	4.193
238.19	4.199
238.86	4.203
239.53	4.213
240.2	4.216
240.87	4.216
241.54	4.216
242.21	4.216
242.88	4.216
243.55	4.213
244.22	4.203
244.89	4.193
245.56	4.179
246.23	4.159
246.9	4.135
247.57	4.111
248.24	4.078
248.91	4.041
249.58	4
250.25	3.956
250.92	3.909
251.59	3.872
252.26	3.824
252.93	3.78
253.6	3.736
254.27	3.696
254.94	3.652
255.61	3.601
256.28	3.551
256.95	3.503
257.62	3.459
258.29	3.422
258.96	3.385
259.63	3.348
260.3	3.321
260.97	3.291
261.64	3.26
262.31	3.233
262.98	3.209
263.65	3.186
264.32	3.169
264.99	3.152
265.66	3.128
266.33	3.115
267	3.098
267.67	3.081
268.34	3.068
269.01	3.054
269.68	3.044
270.35	3.03
271.02	3.01
271.69	2.986
272.36	2.956
273.03	2.926
273.7	2.899
274.37	2.875
275.04	2.845
275.71	2.821
276.38	2.807
277.05	2.794
277.72	2.777
277.99	2.771
278.8	2.765
279.5	2.773
280.13	2.788
280.47	2.794
280.76	2.793
280.99	2.783
281.43	2.737
281.8	2.699
282.41	2.649
283.08	2.574
283.75	2.503
284.42	2.436
285.09	2.368
285.76	2.297
286.43	2.23
287.1	2.162
287.77	2.088
288.44	2.01
288.92	1.943
289.26	1.878
289.61	1.803
289.78	1.747
289.95	1.668
290.08	1.61
290.23	1.51
290.29	1.446
290.32	1.396
