Uv/Vis Spectrum: 1,4-Benzenediamine, N,N'-diphenyl-
Formula: C18H16N2
CAS: 74-31-7
Instrument: Perkin-Elmer 402
Origin: INSTITUTE OF ENERGY PROBLEMS OF CHEMICAL PHYSICS, RAS
Wavelength (nm)	Logarithm epsilon
222.18	4.06
222.45	4.059
222.97	4.036
223.76	4.009
224.55	3.996
226.13	3.976
226.93	3.966
227.72	3.954
228.51	3.955
229.3	3.94
230.09	3.934
230.88	3.931
231.67	3.928
232.46	3.927
233.25	3.927
234.04	3.928
234.83	3.93
235.62	3.932
237.99	3.94
238.78	3.942
239.57	3.945
240.36	3.947
241.15	3.948
241.94	3.952
245.1	3.959
245.89	3.959
246.68	3.958
247.47	3.957
248.26	3.952
249.05	3.945
249.84	3.945
251.42	3.928
252.21	3.923
253	3.918
253.79	3.912
256.16	3.897
256.95	3.895
257.74	3.894
258.53	3.894
259.32	3.895
260.11	3.897
260.9	3.9
261.7	3.904
262.49	3.905
264.07	3.918
264.86	3.92
265.65	3.926
266.44	3.932
267.23	3.939
268.81	3.952
269.6	3.957
270.39	3.963
271.18	3.969
271.97	3.973
273.55	3.991
274.34	3.998
275.13	4.006
276.71	4.025
277.5	4.031
278.29	4.042
279.08	4.057
279.87	4.076
280.66	4.096
281.45	4.106
282.24	4.123
283.03	4.143
283.82	4.154
284.61	4.169
285.4	4.191
286.19	4.201
286.98	4.215
287.77	4.228
288.56	4.241
289.35	4.253
290.14	4.271
290.93	4.287
291.72	4.312
292.51	4.325
293.3	4.343
294.09	4.353
294.88	4.362
295.68	4.373
296.47	4.386
297.26	4.395
298.05	4.402
298.84	4.412
299.63	4.419
300.42	4.426
301.21	4.43
302	4.441
302.79	4.444
303.58	4.448
304.37	4.455
305.16	4.458
305.95	4.462
307.53	4.467
308.32	4.468
309.11	4.469
309.9	4.47
310.69	4.47
311.48	4.47
312.27	4.47
313.06	4.469
313.85	4.468
314.64	4.467
316.22	4.462
317.01	4.46
317.8	4.457
318.59	4.452
319.38	4.446
320.17	4.44
320.96	4.433
321.75	4.426
322.54	4.417
323.33	4.407
324.12	4.402
324.91	4.387
325.7	4.372
326.49	4.361
327.28	4.348
328.07	4.339
328.86	4.328
329.66	4.315
330.45	4.304
331.24	4.294
332.03	4.276
332.82	4.264
333.61	4.243
334.4	4.223
335.19	4.208
335.98	4.185
336.77	4.171
337.56	4.141
338.35	4.113
339.14	4.082
339.93	4.051
340.72	4.018
341.51	3.99
342.3	3.975
343.09	3.932
343.88	3.888
344.67	3.836
345.46	3.787
346.25	3.731
347.04	3.689
347.83	3.611
348.62	3.533
349.41	3.499
350.2	3.454
350.99	3.408
351.78	3.381
352.57	3.362
353.36	3.304
354.15	3.276
355.73	3.238
356.52	3.205
357.31	3.16
358.1	3.111
358.89	3.075
359.68	3.055
360.47	3.014
361.26	2.992
362.05	2.968
363.63	2.903
364.43	2.874
365.22	2.826
366.01	2.809
366.8	2.773
367.59	2.733
368.38	2.69
371.54	2.489
372.33	2.451
373.12	2.41
375.49	2.254
376.28	2.186
377.07	2.186
