Uv/Vis Spectrum: Bis(trifluoromethyl)thioketene
Formula: C4F6S
CAS: 7445-60-5
Melting point: 54
Boiling point: 52
Instrument: Cary 14
Origin: INSTITUTE OF ENERGY PROBLEMS OF CHEMICAL PHYSICS, RAS
Wavelength (nm)	Logarithm epsilon
183.54	3.412
183.65	3.415
183.75	3.419
183.86	3.422
183.97	3.425
184.19	3.432
184.85	3.46
185.51	3.488
186.18	3.513
186.85	3.542
187.52	3.566
188.21	3.592
188.89	3.613
189.58	3.639
190.28	3.663
190.98	3.687
191.69	3.708
192.4	3.73
193.12	3.749
193.84	3.764
194.57	3.782
195.3	3.798
196.04	3.812
196.79	3.823
197.54	3.83
198.3	3.833
199.06	3.835
199.83	3.831
200.6	3.827
201.38	3.819
202.17	3.804
202.96	3.786
203.76	3.756
204.56	3.729
205.37	3.697
206.19	3.66
207.02	3.615
207.85	3.56
208.69	3.501
209.53	3.43
210.38	3.35
211.24	3.293
212.1	3.224
212.98	3.155
213.86	3.075
214.74	3.019
215.64	2.943
216.54	2.881
217.45	2.812
218.37	2.747
219.29	2.698
220.22	2.651
221.16	2.601
222.11	2.556
223.07	2.51
224.03	2.463
225.01	2.426
225.99	2.394
226.98	2.365
227.98	2.332
228.99	2.293
230.01	2.258
231.03	2.222
232.07	2.179
233.11	2.128
234.17	2.089
235.23	2.046
236.3	1.99
237.39	1.943
238.48	1.914
239.58	1.887
240.7	1.848
241.82	1.806
242.96	1.77
244.1	1.731
245.26	1.699
246.42	1.662
247.6	1.638
248.79	1.614
249.99	1.593
251.21	1.569
252.43	1.55
253.67	1.53
254.92	1.509
256.18	1.482
257.45	1.455
258.74	1.437
260.04	1.421
261.35	1.402
262.67	1.384
264.01	1.368
265.37	1.354
266.73	1.334
268.12	1.32
269.51	1.309
270.92	1.294
272.35	1.28
273.79	1.264
275.24	1.243
276.71	1.219
278.2	1.185
279.7	1.153
281.22	1.113
282.76	1.073
284.31	1.034
285.88	0.996
