Uv/Vis Spectrum: 2,3-Dimethoxycinnamic acid
Formula: C11H12O4
CAS: 7461-60-1
Melting point: 180-181
Instrument: Unicam SP 700
Origin: INSTITUTE OF ENERGY PROBLEMS OF CHEMICAL PHYSICS, RAS
Wavelength (nm)	Logarithm epsilon
211.14	4.113
212.07	4.137
214.23	4.161
215.16	4.186
217.02	4.21
218.57	4.232
220.11	4.253
222.28	4.271
224.45	4.287
227.23	4.293
230.02	4.29
233.42	4.271
235.28	4.253
236.51	4.229
237.44	4.204
240.23	4.091
240.85	4.061
241.46	4.024
242.08	3.984
242.7	3.963
243.32	3.92
243.94	3.871
244.56	3.828
245.18	3.792
245.8	3.78
246.42	3.767
247.65	3.758
248.27	3.761
248.89	3.761
249.51	3.764
250.75	3.78
251.37	3.789
251.98	3.798
253.22	3.832
254.46	3.865
255.08	3.88
256.01	3.902
257.25	3.926
258.48	3.951
260.03	3.981
260.65	4.009
261.89	4.033
262.82	4.061
264.05	4.085
266.22	4.134
267.77	4.171
268.69	4.195
270.24	4.219
272.41	4.244
274.26	4.262
276.43	4.281
280.45	4.293
283.24	4.287
285.71	4.274
287.88	4.256
289.74	4.238
291.59	4.216
292.52	4.192
294.07	4.171
295	4.146
296.54	4.125
297.47	4.094
298.4	4.07
299.02	4.042
299.64	4.015
300.57	3.99
302.42	3.957
303.04	3.929
304.28	3.905
305.21	3.877
305.83	3.85
307.06	3.825
307.99	3.792
308.61	3.764
309.54	3.737
310.47	3.703
311.71	3.66
312.63	3.624
313.87	3.584
314.8	3.56
316.35	3.535
318.2	3.514
319.44	3.489
320.99	3.468
321.92	3.441
323.15	3.416
324.7	3.392
326.56	3.361
328.11	3.328
329.03	3.303
330.58	3.282
331.51	3.251
333.06	3.23
333.98	3.205
334.91	3.181
336.15	3.156
337.08	3.126
338.01	3.101
338.94	3.077
340.79	3.04
342.03	3.001
343.27	2.976
344.2	2.952
346.05	2.915
347.29	2.872
348.53	2.848
349.46	2.823
