Uv/Vis Spectrum: Methylamine
Formula: CH5N
CAS: 74-89-5
Melting point: -93.4
Boiling point: -6.3
Instrument: n.i.g.
Pressure: 0.01-1.8 mm Hg
Origin: INSTITUTE OF ENERGY PROBLEMS OF CHEMICAL PHYSICS, RAS
Wavelength (nm)	Logarithm epsilon
236.157	2.1277
235.785	2.27745
235.557	2.27669
235.312	2.21329
234.786	2.12166
234.392	2.08403
233.72	2.27042
233.506	2.26968
233.057	2.23222
232.65	2.21457
232.365	2.28115
232.328	2.37054
231.749	2.42383
231.579	2.35854
231.08	2.29366
230.633	2.34989
230.432	2.45375
230.258	2.56238
229.899	2.55772
229.707	2.48169
229.532	2.42645
229.384	2.40235
229.026	2.40712
228.835	2.47846
228.555	2.56154
228.286	2.56669
228.073	2.50501
227.75	2.49857
227.423	2.58376
227.092	2.7214
226.912	2.72117
226.909	2.72872
226.704	2.67968
226.471	2.58368
226.213	2.55884
225.801	2.56799
225.539	2.64084
225.239	2.74975
224.936	2.74938
224.846	2.69195
224.755	2.65566
224.664	2.64663
224.239	2.64267
223.971	2.6707
223.697	2.73717
223.466	2.77884
223.168	2.7809
222.883	2.69876
222.715	2.68814
222.512	2.68563
222.005	2.83601
221.8	2.84188
221.482	2.7978
221.212	2.69264
220.792	2.68006
220.686	2.69209
220.575	2.73924
220.461	2.81146
220.298	2.82071
220.135	2.81927
219.971	2.81259
219.806	2.80108
219.578	2.73723
219.36	2.73491
219.171	2.7387
218.999	2.74957
218.794	2.85799
218.683	2.8634
218.561	2.86572
218.427	2.86412
218.139	2.76434
217.784	2.76245
217.512	2.79509
217.325	2.85648
217.001	2.86466
216.904	2.85905
216.769	2.83089
216.597	2.77534
216.436	2.76528
216.145	2.763
215.916	2.76649
215.75	2.7767
215.529	2.86114
215.319	2.85977
215.147	2.83285
215.004	2.77575
214.726	2.75482
214.571	2.75461
214.427	2.76032
214.294	2.77239
213.943	2.88386
213.733	2.88256
213.56	2.85233
213.432	2.78637
212.965	2.781
212.678	2.79501
212.527	2.81009
212.522	2.82555
211.787	2.83116
211.696	2.7975
211.453	2.78109
211.229	2.79066
210.949	2.83233
210.745	2.83331
210.609	2.82617
210.462	2.81374
210.356	2.7721
210.081	2.77032
209.851	2.78728
209.668	2.82216
209.474	2.83486
209.249	2.83191
209.102	2.81205
209.042	2.77277
208.63	2.76975
208.332	2.81245
208.129	2.82683
207.978	2.82664
207.63	2.77083
207.311	2.76897
206.964	2.77535
206.739	2.79243
206.449	2.79204
206.261	2.77686
205.593	2.76841
205.327	2.77801
205.034	2.80233
204.94	2.79875
204.825	2.78454
204.147	2.7659
203.753	2.79542
203.236	2.75931
202.799	2.73681
202.57	2.73979
202.457	2.75072
202.339	2.75053
202.181	2.74365
202.009	2.72203
201.489	2.72118
201.389	2.73257
201.251	2.74083
201.066	2.74597
200.69	2.71985
199.478	2.71987
198.789	2.72831
198.606	2.74468
198.404	2.74435
198.096	2.71144
197.774	2.69489
197.506	2.71442
197.364	2.74003
197.188	2.73974
197.006	2.72648
196.813	2.6982
196.446	2.70115
196.265	2.73152
196.06	2.74913
195.55	2.7423
195.414	2.75246
195.286	2.75078
195.171	2.74232
195.067	2.72743
194.871	2.72709
194.742	2.7363
194.4	2.74095
193.957	2.73961
193.665	2.76543
193.538	2.79494
193.4	2.80321
193.269	2.80471
193.085	2.77254
192.898	2.77365
192.611	2.80556
192.436	2.82409
192.245	2.82382
192.169	2.81601
192.087	2.81199
191.998	2.81186
191.741	2.8344
191.552	2.82938
191.366	2.82255
191.178	2.82228
190.951	2.85511
190.559	2.85458
190.154	2.87669
189.94	2.91082
189.694	2.91231
189.557	2.89996
189.403	2.89519
189.233	2.89866
189.103	2.9333
188.998	2.93783
188.879	2.93682
188.737	2.92947
188.553	2.93096
188.489	2.94595
188.377	2.95358
188.216	2.9546
187.982	2.91202
187.786	2.91178
187.644	2.91779
187.555	2.9298
187.379	2.9967
187.161	2.99365
187.108	2.98606
187.09	2.97771
186.97	2.97142
186.795	2.97213
186.606	2.98061
186.328	3.015
185.975	3.07333
185.452	3.07188
185.147	3.07292
184.795	3.08233
184.645	3.07125
184.504	3.06388
184.249	3.06532
184.069	3.07657
183.685	3.15198
183.449	3.18591
183.324	3.18504
183.243	3.17003
183.011	3.16913
182.866	3.17755
182.801	3.19453
182.649	3.20768
182.478	3.2069
182.333	3.19584
182.216	3.17345
181.902	3.1742
181.666	3.18531
181.509	3.19752
181.431	3.2107
181.287	3.21416
181.201	3.22569
181.094	3.23085
180.966	3.23028
180.829	3.22395
180.715	3.22323
180.601	3.22482
180.49	3.22826
180.342	3.24994
180.263	3.26429
180.126	3.29132
179.979	3.29081
179.786	3.25204
179.674	3.25035
179.5	3.2513
179.365	3.25603
179.014	3.25582
178.901	3.25795
178.785	3.26583
178.669	3.27914
178.249	3.28835
178.188	3.30115
178.157	3.30731
178.143	3.32899
178.002	3.36417
177.858	3.3641
177.702	3.35197
177.55	3.3259
177.278	3.32644
177.095	3.34378
176.949	3.35224
176.832	3.35181
176.531	3.32536
176.364	3.32394
176.147	3.32497
176.024	3.32714
175.656	3.3578
175.58	3.35998
175.483	3.35967
175.365	3.35701
175.272	3.33805
175.113	3.33846
175.018	3.33957
174.985	3.34138
174.72	3.41082
174.579	3.4095
174.435	3.40142
174.344	3.38851
174.246	3.38594
174.192	3.3655
174.058	3.34752
173.991	3.34482
173.68	3.34465
173.542	3.3465
173.419	3.34702
173.319	3.34659
173.047	3.33046
172.912	3.32903
172.801	3.32998
172.712	3.33315
172.489	3.36016
172.385	3.36137
172.3	3.36149
172.238	3.36066
172.024	3.33697
171.872	3.33689
171.72	3.34193
171.611	3.35234
171.482	3.35501
171.412	3.35406
171.307	3.35017
171.1	3.33226
170.797	3.33411
170.714	3.33222
170.626	3.32153
170.538	3.31028
170.316	3.31086
170.192	3.31957
170.075	3.32354
170.03	3.32707
169.962	3.32307
169.873	3.30488
169.78	3.29554
169.683	3.29548
169.44	3.32208
169.293	3.32199
169.2	3.31373
169.162	3.29681
169.07	3.29363
168.94	3.29355
168.831	3.29861
168.743	3.30849
168.472	3.31064
168.027	3.29738
167.152	3.27296
164.794	3.20303
164.506	3.19521
164.123	3.18219
162.12	3.1254
161.435	3.10466
159.396	3.03401
