Uv/Vis Spectrum: Ethylene
Formula: C2H4
CAS: 74-85-1
Melting point: - 169
Boiling point: - 103.7
Instrument: n.i.g.
Origin: INSTITUTE OF ENERGY PROBLEMS OF CHEMICAL PHYSICS, RAS
Wavelength (nm)	Logarithm epsilon
142.01	2.281
142.11	2.3
142.21	2.32
142.35	2.349
142.43	2.367
142.52	2.386
142.62	2.41
142.72	2.428
142.85	2.453
142.96	2.476
144.01	2.698
144.33	2.752
144.59	2.801
145.59	2.999
146.29	3.101
146.86	3.194
147.07	3.23
147.28	3.262
147.46	3.288
147.7	3.321
147.96	3.353
148.23	3.388
148.55	3.425
148.72	3.447
148.95	3.474
149.12	3.495
149.38	3.523
149.64	3.551
149.83	3.571
150.03	3.594
150.26	3.617
150.45	3.634
150.75	3.661
151	3.685
151.27	3.707
151.5	3.726
151.7	3.742
151.91	3.757
152.14	3.772
152.3	3.783
152.57	3.798
152.77	3.81
152.98	3.823
153.19	3.836
153.4	3.848
153.61	3.862
153.82	3.876
154.01	3.889
154.24	3.904
154.44	3.916
154.66	3.927
154.88	3.94
155.09	3.952
155.27	3.963
155.51	3.975
155.71	3.985
155.9	3.995
156.08	4.005
156.3	4.017
156.57	4.03
156.78	4.038
156.97	4.047
157.18	4.057
157.38	4.068
157.57	4.079
157.79	4.089
158.01	4.099
158.26	4.112
158.47	4.122
158.68	4.133
158.89	4.142
159.1	4.151
159.31	4.157
159.53	4.163
159.7	4.168
159.91	4.173
160.16	4.179
160.37	4.182
160.58	4.184
160.79	4.186
161	4.188
161.21	4.188
161.42	4.188
161.64	4.188
161.85	4.188
162.06	4.188
162.27	4.186
162.48	4.184
162.67	4.182
162.9	4.178
163.11	4.174
163.32	4.168
163.54	4.159
163.75	4.15
163.96	4.141
164.17	4.131
164.38	4.12
164.58	4.111
164.8	4.101
165.01	4.089
165.22	4.075
165.47	4.059
165.69	4.045
165.87	4.033
166.07	4.022
166.28	4.008
166.49	3.992
166.7	3.974
166.92	3.956
167.14	3.937
167.34	3.92
167.55	3.902
167.78	3.879
167.97	3.854
168.23	3.822
168.43	3.795
168.6	3.77
168.82	3.728
169.02	3.683
169.2	3.638
169.4	3.589
169.58	3.534
169.86	3.462
170.08	3.385
170.33	3.302
170.51	3.251
170.69	3.186
170.87	3.114
171.01	3.057
171.16	2.959
171.34	2.847
171.46	2.768
171.52	2.726
171.59	2.677
171.72	2.609
171.91	2.521
172.02	2.55
172.07	2.585
172.16	2.661
172.21	2.721
172.26	2.784
172.36	2.919
172.46	3.065
172.51	3.17
172.56	3.248
172.62	3.325
172.67	3.381
172.68	3.406
172.71	3.434
172.74	3.457
172.78	3.477
172.82	3.488
172.87	3.477
172.9	3.462
172.95	3.439
172.99	3.398
173.09	3.326
173.22	3.233
173.41	3.044
173.56	2.903
173.62	2.907
173.68	2.924
173.72	2.95
173.77	2.982
173.98	3.391
174.09	3.639
174.2	3.732
174.29	3.742
174.41	3.745
174.53	3.739
174.62	3.732
174.72	3.645
