Uv/Vis Spectrum: Methane, bromo-
Formula: CH3Br
CAS: 74-83-9
Melting point: - 93.7
Boiling point: 3.5
Instrument: Beckman DU
Origin: INSTITUTE OF ENERGY PROBLEMS OF CHEMICAL PHYSICS, RAS
Wavelength (nm)	Logarithm epsilon
202.09	2.282
202.24	2.282
202.39	2.282
202.54	2.282
202.69	2.282
202.84	2.282
202.99	2.282
203.13	2.282
203.28	2.282
203.43	2.282
203.58	2.282
203.73	2.282
203.88	2.282
204.33	2.282
204.48	2.285
205.07	2.276
205.67	2.27
206.27	2.267
206.87	2.264
207.46	2.261
208.06	2.258
208.66	2.252
209.25	2.252
209.85	2.24
210.45	2.228
211.04	2.219
211.64	2.213
212.24	2.204
212.84	2.192
213.43	2.179
214.03	2.179
214.63	2.155
215.22	2.14
215.82	2.125
216.42	2.107
217.01	2.086
217.61	2.064
218.21	2.055
219.4	2.01
220	1.983
220.6	1.958
221.19	1.934
221.79	1.907
222.39	1.877
222.99	1.868
224.18	1.798
224.78	1.771
225.37	1.743
225.97	1.719
226.57	1.692
227.16	1.668
227.76	1.659
228.36	1.613
228.96	1.577
229.55	1.553
230.15	1.519
230.75	1.483
231.34	1.453
231.94	1.422
232.54	1.41
233.13	1.356
233.73	1.319
234.33	1.283
234.93	1.253
235.52	1.217
236.12	1.18
236.72	1.132
237.31	1.095
237.91	1.071
238.51	1.029
239.1	0.986
239.7	0.956
240.3	0.914
240.9	0.871
241.49	0.847
242.09	0.823
242.69	0.762
243.28	0.717
243.88	0.671
244.48	0.635
245.07	0.59
245.67	0.547
246.27	0.514
247.46	0.423
248.06	0.372
248.66	0.332
249.25	0.287
249.85	0.238
250.45	0.205
251.04	0.154
251.64	0.111
252.24	0.063
252.84	0.03
253.43	-0.007
254.03	-0.04
254.63	-0.07
255.22	-0.104
255.82	-0.14
256.42	-0.228
257.01	-0.246
257.61	-0.291
258.21	-0.343
258.81	-0.394
259.4	-0.44
260	-0.494
260.6	-0.546
261.19	-0.594
261.79	-0.661
262.39	-0.7
