Uv/Vis Spectrum: 2-Naphthylacetonitrile
Formula: C12H9N
CAS: 7498-57-9
Melting point: 83
Instrument: unknown
Origin: INSTITUTE OF ENERGY PROBLEMS OF CHEMICAL PHYSICS, RAS
Wavelength (nm)	Logarithm epsilon
212.02	4.648
212.18	4.648
212.35	4.652
212.52	4.652
212.68	4.657
212.85	4.657
213.02	4.661
213.18	4.661
213.35	4.665
213.52	4.665
213.69	4.669
213.85	4.669
214.02	4.673
214.19	4.673
214.35	4.677
214.85	4.694
215.35	4.711
215.93	4.729
216.34	4.746
216.86	4.769
217.36	4.799
217.87	4.829
218.36	4.859
218.86	4.886
219.36	4.903
219.86	4.918
220.36	4.928
220.86	4.94
221.36	4.953
221.86	4.97
222.37	4.994
222.86	5.028
223.38	5.064
223.87	5.095
224.35	5.119
224.87	5.141
225.01	5.147
225.1	5.149
225.2	5.149
225.28	5.143
225.37	5.133
225.87	5.011
226.37	4.899
226.87	4.782
227.37	4.661
227.87	4.535
228.37	4.423
228.56	4.384
228.95	4.305
229.37	4.218
230.04	4.101
230.69	3.983
230.83	3.957
231.38	3.855
231.88	3.75
232.38	3.625
232.88	3.504
233.38	3.412
233.88	3.358
234.38	3.32
234.81	3.299
235.34	3.28
235.88	3.262
236.38	3.245
236.81	3.233
237.3	3.221
237.89	3.208
238.39	3.199
238.89	3.199
239.42	3.204
239.91	3.213
240.39	3.22
240.89	3.228
241.39	3.241
241.89	3.254
242.44	3.262
242.89	3.274
243.39	3.283
243.91	3.291
244.44	3.302
244.97	3.31
245.35	3.319
245.9	3.329
246.4	3.337
246.9	3.35
247.4	3.358
247.9	3.366
248.4	3.379
248.9	3.387
249.39	3.396
249.9	3.408
250.41	3.419
250.9	3.429
251.4	3.441
251.9	3.45
252.41	3.458
252.9	3.469
253.41	3.479
253.96	3.492
254.41	3.5
254.91	3.508
255.41	3.517
255.91	3.525
256.41	3.533
256.91	3.537
257.41	3.546
257.89	3.553
258.41	3.563
258.94	3.571
259.41	3.579
259.92	3.588
260.42	3.6
260.92	3.608
261.42	3.617
261.92	3.625
262.42	3.638
262.95	3.65
263.42	3.659
263.89	3.667
264.38	3.674
264.92	3.679
265.44	3.683
265.92	3.684
266.42	3.684
266.93	3.684
267.43	3.684
267.93	3.679
268.43	3.679
268.93	3.679
269.43	3.679
269.93	3.679
270.43	3.679
270.93	3.679
271.54	3.681
271.96	3.685
272.44	3.692
272.93	3.7
273.43	3.713
273.93	3.721
274.44	3.73
274.94	3.734
275.44	3.738
275.94	3.738
276.44	3.738
276.94	3.731
277.36	3.723
277.84	3.712
278.44	3.692
278.94	3.675
279.42	3.661
279.94	3.642
280.43	3.628
280.96	3.615
281.45	3.604
281.95	3.596
282.45	3.588
282.95	3.579
283.45	3.575
283.92	3.57
284.45	3.563
284.95	3.554
285.41	3.544
285.95	3.533
286.45	3.521
286.95	3.512
287.36	3.503
287.95	3.492
288.45	3.471
288.96	3.446
289.46	3.408
289.96	3.37
290.46	3.329
290.96	3.287
291.46	3.245
291.96	3.203
292.46	3.162
292.96	3.116
293.46	3.053
293.96	2.995
294.46	2.928
294.91	2.86
295.38	2.784
295.85	2.725
296.51	2.658
296.99	2.624
297.47	2.598
297.97	2.569
298.47	2.54
298.97	2.527
299.46	2.506
299.97	2.489
300.47	2.481
300.97	2.473
301.47	2.477
301.97	2.481
302.47	2.477
302.97	2.469
303.48	2.464
303.98	2.456
304.38	2.445
304.8	2.433
305.48	2.406
305.83	2.382
306.48	2.352
306.91	2.337
307.48	2.327
307.98	2.322
308.48	2.31
308.98	2.301
309.48	2.281
309.98	2.243
310.48	2.21
310.99	2.18
311.24	2.174
311.49	2.176
311.99	2.226
312.34	2.259
312.65	2.288
312.85	2.299
313.11	2.305
313.37	2.299
313.49	2.285
313.73	2.248
313.99	2.205
