Uv/Vis Spectrum: Acetonitrile
Formula: C2H3N
CAS: 75-05-8
Melting point: - 43.6
Boiling point: 81.6
Instrument: Bekman DK-1
Origin: INSTITUTE OF ENERGY PROBLEMS OF CHEMICAL PHYSICS, RAS
Wavelength (nm)	Logarithm epsilon
305.82	2.02
306.3	2
306.78	1.985
307.26	1.969
307.75	1.956
308.23	1.946
308.71	1.935
309.19	1.927
309.68	1.917
310.16	1.908
310.64	1.9
311.12	1.892
311.61	1.884
312.09	1.876
312.57	1.87
313.05	1.863
313.54	1.86
314.02	1.855
314.5	1.853
314.98	1.853
315.46	1.853
315.95	1.854
316.43	1.855
316.91	1.855
317.39	1.858
317.88	1.86
318.36	1.863
318.84	1.865
319.32	1.87
319.81	1.872
320.29	1.876
320.77	1.881
321.25	1.885
321.74	1.888
322.22	1.892
322.7	1.898
323.18	1.903
323.66	1.911
324.15	1.914
324.63	1.92
325.11	1.925
325.59	1.931
326.08	1.935
326.56	1.939
327.04	1.944
327.52	1.951
328.01	1.953
328.49	1.958
328.97	1.962
329.45	1.967
329.94	1.971
330.42	1.978
330.9	1.983
331.38	1.989
331.86	1.995
332.35	1.999
332.83	2.004
333.31	2.011
333.79	2.015
334.28	2.019
334.76	2.023
335.24	2.029
335.72	2.033
336.21	2.037
336.69	2.041
337.17	2.045
337.65	2.048
338.14	2.051
338.62	2.054
339.1	2.058
339.58	2.061
340.06	2.063
340.55	2.066
341.03	2.068
341.51	2.071
341.99	2.075
342.48	2.077
342.96	2.079
343.44	2.082
343.92	2.084
344.41	2.086
344.89	2.089
345.37	2.09
345.85	2.092
346.34	2.094
346.82	2.096
347.3	2.098
347.78	2.099
348.26	2.101
348.75	2.102
349.23	2.103
349.71	2.104
350.19	2.105
350.68	2.105
351.16	2.105
351.64	2.107
352.12	2.107
352.61	2.107
353.09	2.107
353.57	2.105
354.05	2.105
354.54	2.104
355.02	2.102
355.5	2.101
355.98	2.098
356.46	2.096
356.95	2.094
357.43	2.092
357.91	2.089
358.39	2.086
358.88	2.084
359.36	2.081
359.84	2.078
360.32	2.074
360.81	2.071
361.29	2.068
361.77	2.064
362.25	2.06
362.74	2.056
363.22	2.051
363.7	2.045
364.18	2.04
364.66	2.036
365.15	2.03
365.63	2.024
366.11	2.02
366.59	2.013
367.08	2.008
367.56	2.001
368.04	1.995
368.52	1.988
369.01	1.982
369.49	1.975
369.97	1.966
370.45	1.959
370.94	1.95
371.42	1.941
371.9	1.932
372.38	1.92
372.86	1.909
373.35	1.899
373.83	1.887
374.31	1.876
374.79	1.861
375.28	1.849
375.76	1.837
376.24	1.825
376.72	1.814
377.21	1.801
377.69	1.788
378.17	1.774
378.65	1.763
379.14	1.75
379.62	1.737
380.1	1.722
380.58	1.712
381.06	1.702
381.55	1.687
382.03	1.674
382.51	1.66
382.99	1.65
383.48	1.635
383.96	1.622
384.44	1.606
384.92	1.593
385.41	1.579
385.89	1.563
386.37	1.542
386.85	1.525
387.34	1.51
387.82	1.492
388.3	1.476
388.78	1.456
389.26	1.436
389.75	1.42
390.23	1.401
390.71	1.374
391.19	1.357
391.68	1.338
392.16	1.319
392.64	1.299
393.12	1.273
393.61	1.246
394.09	1.217
394.57	1.191
395.05	1.164
395.54	1.135
396.02	1.11
396.5	1.09
396.98	1.07
397.46	1.041
397.59	1.048
397.71	1.041
397.83	1.033
397.95	1.033
398.07	1.026
398.19	1.026
398.31	1.018
398.43	1.01
398.55	1.01
398.67	1.002
398.79	0.993
398.91	0.993
399.03	0.985
399.15	0.976
399.27	0.976
399.39	0.968
