Uv/Vis Spectrum: Ethanethiol
Formula: C2H6S
CAS: 75-08-1
Melting point: -147.8
Boiling point: 35.1
Instrument: Beckman DU
Origin: INSTITUTE OF ENERGY PROBLEMS OF CHEMICAL PHYSICS, RAS
Wavelength (nm)	Logarithm epsilon
210.181	2.54113
210.467	2.52391
210.757	2.5065
211.054	2.489
211.757	2.4373
212.045	2.42726
212.336	2.41713
212.635	2.40681
212.635	2.40681
212.754	2.4068
212.873	2.40678
212.992	2.40677
212.992	2.40677
213.322	2.3659
214.015	2.32809
214.962	2.29235
216.055	2.25768
217.186	2.22312
217.186	2.22312
217.703	2.2198
217.998	2.21642
218.322	2.21007
218.322	2.21007
219.513	2.20829
219.997	2.20651
220.19	2.20319
220.36	2.20316
222.253	2.20393
224.219	2.20904
226.091	2.22202
226.091	2.22202
227.418	2.22424
228.744	2.22626
230.07	2.2282
230.07	2.2282
230.435	2.22014
230.941	2.21446
232.02	2.20632
233.597	2.18864
234.256	2.18261
235.001	2.17333
235.716	2.16258
236.936	2.14536
237.14	2.14324
237.348	2.14102
237.563	2.13863
239.409	2.10635
239.816	2.09756
240.227	2.08877
240.645	2.07998
241.862	2.04986
242.324	2.03844
242.793	2.02684
243.266	2.01514
244.668	1.97626
244.927	1.96832
245.193	1.96038
245.462	1.95244
246.611	1.91567
246.931	1.90355
247.251	1.89133
247.572	1.87893
248.365	1.85053
248.652	1.83841
248.943	1.82619
249.241	1.81379
250.455	1.76828
250.661	1.75584
250.844	1.74859
251.163	1.7403
252.209	1.69938
252.466	1.68727
252.731	1.67506
253	1.66266
253.792	1.62593
254.127	1.61484
254.462	1.59986
254.752	1.58461
255.542	1.54373
255.873	1.52579
256.153	1.51313
256.316	1.50242
257.107	1.4657
257.342	1.45431
257.578	1.44274
257.814	1.43107
258.502	1.39227
258.759	1.37724
259.024	1.36212
259.292	1.34681
259.896	1.31011
260.035	1.29956
260.182	1.28883
260.332	1.27801
261.121	1.23254
261.323	1.22043
261.524	1.20823
261.726	1.19584
262.515	1.15038
262.683	1.13827
262.855	1.12607
263.034	1.11368
263.739	1.06823
263.907	1.05612
264.079	1.04392
264.258	1.03154
264.946	0.986086
265.148	0.972619
265.353	0.958965
265.566	0.945222
266.355	0.895594
266.556	0.880568
266.757	0.865453
266.958	0.85015
267.559	0.800545
267.727	0.787609
267.899	0.774575
268.078	0.761356
268.95	0.700903
268.968	0.693841
269.107	0.683245
269.485	0.660049
270.003	0.614613
270.17	0.600428
270.342	0.586148
270.521	0.571686
271.04	0.532487
271.207	0.519027
271.379	0.505381
271.558	0.491642
272.075	0.442041
272.277	0.42993
272.483	0.417737
272.696	0.405346
273.297	0.351158
273.413	0.338237
273.53	0.325331
273.646	0.31241
274.332	0.260715
274.709	0.232666
274.848	0.219139
274.865	0.208629
275.384	0.165689
275.551	0.151921
275.723	0.138176
275.902	0.124406
276.253	0.096493
276.386	0.075656
276.522	0.054843
