Uv/Vis Spectrum: Acetaldehyde
Formula: C2H4O
CAS: 75-07-0
Melting point: - 123
Boiling point: 20.1
Instrument: Beckman DU
Origin: INSTITUTE OF ENERGY PROBLEMS OF CHEMICAL PHYSICS, RAS
Wavelength (nm)	Logarithm epsilon
253.09	0.6
253.25	0.603
253.4	0.606
253.56	0.609
253.71	0.613
253.87	0.616
254.64	0.637
255.42	0.661
256.2	0.684
256.97	0.708
257.75	0.733
258.52	0.755
259.3	0.776
260.08	0.799
260.85	0.822
261.63	0.841
262.4	0.856
263.18	0.877
263.96	0.893
264.73	0.911
265.51	0.93
266.28	0.95
267.06	0.968
267.84	0.984
268.61	1
269.39	1.01
270.16	1.025
270.94	1.038
271.72	1.052
272.49	1.065
273.27	1.076
274.04	1.089
274.82	1.099
275.6	1.111
276.37	1.119
277.15	1.128
277.92	1.136
278.7	1.145
279.48	1.151
280.25	1.158
281.03	1.164
281.8	1.167
282.58	1.174
283.36	1.175
284.13	1.182
284.91	1.184
285.68	1.185
286.46	1.187
287.24	1.188
288.01	1.188
288.79	1.19
289.56	1.19
290.34	1.188
291.12	1.187
291.89	1.184
292.67	1.184
293.44	1.18
294.22	1.177
295	1.172
295.77	1.167
296.55	1.164
297.32	1.158
298.1	1.154
298.88	1.148
299.65	1.14
300.43	1.132
301.2	1.125
301.98	1.117
302.76	1.107
303.53	1.099
304.31	1.089
305.08	1.081
305.86	1.068
306.64	1.057
307.41	1.046
308.19	1.033
308.96	1.021
309.74	1.007
310.52	0.989
311.29	0.973
312.07	0.958
312.84	0.942
313.62	0.927
314.4	0.909
315.17	0.893
315.95	0.874
316.72	0.856
317.45	0.839
318.28	0.814
319.05	0.791
319.83	0.767
320.6	0.742
321.38	0.715
322.12	0.682
322.93	0.645
323.71	0.606
