Uv/Vis Spectrum: 2,1,3-Benzothiadiazole, tetrafluoro-
Formula: C6F4N2S
CAS: 75207-77-1
Melting point: 51-52
Instrument: SF 16
Origin: INSTITUTE OF ENERGY PROBLEMS OF CHEMICAL PHYSICS, RAS
Wavelength (nm)	Logarithm epsilon
212.79	3.975
213.32	3.98
213.85	3.985
214.38	3.99
214.92	4
215.45	4.005
215.98	4.01
216.51	4.015
217.05	4.02
217.58	4.026
219.18	4.041
220.78	4.061
222.37	4.081
223.97	4.091
225.57	4.096
227.17	4.091
228.77	4.076
230.36	4.046
231.96	3.97
233.56	3.899
239.95	3.536
244.21	2.769
245.81	2.542
247.41	2.471
249.01	2.456
250.61	2.471
252.21	2.481
253.8	2.496
255.4	2.582
257	2.648
258.6	2.703
265.52	3.011
267.12	3.041
268.72	3.097
270.32	3.152
271.92	3.223
273.51	3.279
275.11	3.324
276.71	3.369
278.31	3.415
279.91	3.47
281.5	3.526
283.1	3.576
284.7	3.637
286.3	3.672
287.9	3.708
289.5	3.753
291.09	3.803
292.69	3.849
294.29	3.879
295.89	3.909
297.49	3.92
299.08	3.92
300.68	3.92
302.28	3.925
303.88	3.945
305.48	3.945
307.07	3.945
308.67	3.965
310.27	3.95
311.87	3.798
313.47	3.647
315.07	3.561
316.66	3.511
318.26	3.47
319.86	3.445
321.46	3.425
323.06	3.41
324.65	3.39
326.25	3.374
327.85	3.364
329.45	3.349
331.05	3.339
332.64	3.329
334.24	3.319
335.84	3.309
337.44	3.294
339.04	3.279
340.64	3.258
342.23	3.243
343.83	3.218
345.43	3.183
347.03	3.147
348.63	3.117
350.22	3.082
351.82	3.046
353.42	3.036
355.02	3.006
356.62	2.93
358.21	2.86
359.81	2.799
361.41	2.738
363.01	2.673
364.61	2.557
366.21	2.471
367.8	2.35
369.4	2.178
371	2.108
372.6	2.022
