Uv/Vis Spectrum: Ethylene oxide
Formula: C2H4O
CAS: 75-21-8
Melting point: - 111.7
Boiling point: 10.6
Instrument: n.i.g.
Origin: INSTITUTE OF ENERGY PROBLEMS OF CHEMICAL PHYSICS, RAS
Wavelength (nm)	Logarithm epsilon
156.44	3.665
156.57	3.655
156.7	3.603
156.83	3.544
156.96	3.482
157.1	3.454
157.23	3.433
157.36	3.416
157.49	3.381
157.62	3.295
157.75	3.288
157.88	3.284
158.15	3.305
158.42	3.333
158.55	3.361
158.68	3.454
158.82	3.565
158.95	3.713
159.08	3.727
159.22	3.696
159.35	3.627
159.49	3.561
159.62	3.399
159.76	3.26
159.89	3.212
160.03	3.163
160.17	3.132
160.3	3.104
160.44	3.077
160.58	3.056
160.85	3.025
160.99	3.008
161.12	3.008
161.26	2.994
161.4	2.994
161.54	2.997
161.68	3.008
161.96	3.011
162.1	3.008
162.23	3.008
162.37	3.008
162.51	3.008
162.65	3.011
162.8	3.028
162.94	3.053
163.08	3.07
163.22	3.091
163.36	3.122
163.5	3.122
163.64	3.132
163.79	3.136
163.93	3.139
164.07	3.143
164.21	3.156
164.36	3.174
164.5	3.174
164.64	3.188
164.79	3.198
164.93	3.201
165.08	3.212
165.22	3.219
165.37	3.222
165.51	3.222
165.66	3.233
165.8	3.239
165.95	3.243
166.1	3.257
166.24	3.274
166.39	3.305
166.54	3.322
166.68	3.326
166.83	3.336
166.98	3.354
167.13	3.361
167.27	3.374
167.42	3.388
167.57	3.388
167.72	3.402
167.87	3.406
168.02	3.416
168.17	3.419
168.32	3.423
168.47	3.419
168.62	3.426
168.77	3.433
168.92	3.447
169.08	3.468
169.23	3.468
169.53	3.489
169.68	3.506
169.84	3.523
169.99	3.544
170.14	3.565
170.3	3.589
170.45	3.596
170.61	3.613
170.76	3.617
170.92	3.582
171.07	3.53
171.23	3.499
171.38	3.433
171.54	3.381
171.69	3.354
171.85	3.354
172.01	3.367
172.17	3.395
172.32	3.468
172.48	3.544
172.64	3.585
172.8	3.603
173.11	3.596
173.27	3.575
173.43	3.52
173.59	3.461
173.75	3.423
173.91	3.364
174.07	3.316
174.23	3.264
174.4	3.198
174.56	3.146
174.72	3.08
174.88	3.015
175.04	2.949
175.21	2.911
175.37	2.852
175.53	2.828
175.7	2.783
175.86	2.745
176.02	2.71
176.19	2.679
176.35	2.644
176.52	2.613
176.69	2.589
176.85	2.561
177.02	2.527
177.18	2.499
177.35	2.475
177.52	2.475
177.68	2.447
177.85	2.426
178.02	2.426
178.19	2.395
178.53	2.364
178.7	2.371
178.87	2.343
179.04	2.326
179.21	2.298
179.38	2.281
179.55	2.278
179.72	2.25
180.06	2.226
180.23	2.198
180.41	2.181
180.58	2.181
180.75	2.149
180.93	2.129
181.27	2.104
181.45	2.084
181.62	2.06
181.8	2.042
181.92	2.028
181.97	2.025
182.03	2.021
182.09	2.015
182.15	2.011
182.21	2.004
182.27	2.001
182.33	1.994
