Uv/Vis Spectrum: Acetyl chloride
Formula: C2H3ClO
CAS: 75-36-5
Boiling point: 50.7
Instrument: Beckman DU
Origin: INSTITUTE OF ENERGY PROBLEMS OF CHEMICAL PHYSICS, RAS
Wavelength (nm)	Logarithm epsilon
213	1.932
213.27	1.933
213.55	1.935
213.82	1.936
214.09	1.937
214.36	1.938
214.64	1.94
214.91	1.941
215.18	1.942
215.45	1.946
216	1.955
216.55	1.965
217.64	1.974
218.18	1.977
218.73	1.986
219.27	1.994
220.36	2
220.91	2.002
221.45	2.002
222	1.998
222.55	1.993
223.09	1.99
224.73	1.967
225.27	1.959
226.36	1.947
226.91	1.933
227.45	1.922
228	1.907
229.09	1.883
229.64	1.864
230.73	1.835
231.27	1.832
232.36	1.791
234	1.751
235.09	1.707
236.18	1.667
237.27	1.613
237.82	1.597
240	1.523
240.55	1.506
243.27	1.422
243.82	1.401
244.36	1.384
247.64	1.311
248.73	1.29
249.27	1.279
249.82	1.267
253.09	1.191
253.64	1.184
254.18	1.177
254.73	1.163
255.82	1.148
256.36	1.14
259.64	1.063
260.73	1.035
261.27	1.025
261.82	1.014
