Uv/Vis Spectrum: Propane, 2-iodo-
Formula: C3H7I
CAS: 75-30-9
Melting point: -90
Boiling point: 89.5
Instrument: Zeiss PMQ II
Origin: INSTITUTE OF ENERGY PROBLEMS OF CHEMICAL PHYSICS, RAS
Wavelength (nm)	Logarithm epsilon
306.037	1.19428
305.826	1.21138
305.401	1.22413
305.194	1.23893
304.771	1.25167
304.559	1.27108
304.144	1.27743
303.934	1.29659
303.517	1.30703
303.308	1.32618
302.89	1.33892
302.683	1.35603
302.269	1.36672
302.062	1.38588
301.649	1.39657
301.447	1.41138
301.034	1.42412
300.83	1.44123
300.419	1.45397
300.216	1.47108
299.827	1.48791
299.608	1.49658
299.222	1.51137
298.998	1.52847
298.615	1.54122
298.395	1.55398
298.014	1.56672
297.791	1.58383
297.411	1.59657
297.189	1.61342
296.811	1.62616
296.59	1.64327
296.213	1.65601
295.993	1.67312
295.62	1.68381
295.402	1.69862
295.031	1.70932
294.812	1.72642
294.44	1.73917
294.223	1.75602
293.852	1.76876
293.635	1.78586
293.266	1.79861
293.072	1.81572
292.684	1.82641
292.493	1.84122
292.107	1.85191
291.913	1.87107
291.528	1.88151
291.337	1.89861
290.951	1.91135
290.761	1.92846
290.377	1.9412
290.189	1.95601
289.805	1.97105
289.612	1.99225
289.237	1.9986
289.05	2.01366
288.673	2.0241
288.483	2.04326
288.107	2.05395
287.922	2.06876
287.549	2.07741
287.363	2.09452
286.993	2.10087
286.81	2.11567
286.44	2.12407
286.257	2.13913
285.89	2.14548
285.708	2.16029
285.343	2.16664
285.16	2.18375
284.796	2.19009
284.615	2.2049
284.252	2.21125
284.072	2.22631
283.709	2.23471
283.533	2.24542
283.172	2.25382
282.995	2.26658
282.636	2.27293
282.46	2.28569
282.103	2.29204
281.927	2.3048
281.573	2.30911
281.398	2.32187
281.044	2.32822
280.873	2.33663
280.537	2.34733
280.346	2.35574
280.015	2.36209
279.823	2.37281
279.493	2.37916
279.303	2.38783
278.973	2.39622
278.783	2.40694
278.457	2.41099
278.267	2.42171
277.94	2.42806
277.753	2.43647
277.426	2.44512
277.24	2.45354
276.916	2.45989
276.73	2.46855
276.407	2.47491
276.222	2.48332
275.898	2.49172
275.716	2.49809
275.397	2.50239
275.233	2.51081
274.893	2.51715
274.728	2.52787
274.394	2.52987
274.05	2.54492
273.735	2.54922
273.553	2.55763
272.904	2.57033
272.41	2.5851
272.079	2.5894
271.92	2.59577
271.435	2.60414
271.103	2.61279
270.467	2.62319
270.31	2.62956
269.986	2.63182
269.83	2.63819
268.725	2.65517
268.553	2.65924
268.252	2.6615
268.079	2.66787
267.611	2.66985
267.458	2.67622
266.993	2.6782
266.841	2.68253
266.524	2.68683
266.208	2.69088
265.912	2.69314
265.597	2.69719
265.137	2.70147
264.825	2.70347
264.676	2.7078
263.768	2.70971
263.312	2.71604
260.937	2.718
260.497	2.71564
260.059	2.71148
259.482	2.7091
258.911	2.70262
258.479	2.69847
257.327	2.6896
256.902	2.68315
256.765	2.68313
256.342	2.67667
255.768	2.66815
255.499	2.66376
255.348	2.66169
254.929	2.65524
253.835	2.63155
253.422	2.62509
253.143	2.61866
252.734	2.60785
252.601	2.60783
252.325	2.59935
252.064	2.59497
251.787	2.58853
251.513	2.58005
251.107	2.5736
250.708	2.5587
250.45	2.55431
249.927	2.53275
249.78	2.53273
249.384	2.51988
249.255	2.51986
248.991	2.50295
248.864	2.50063
248.596	2.49215
248.343	2.48571
248.201	2.48365
247.812	2.46645
247.685	2.46439
247.422	2.4536
247.296	2.45128
246.787	2.42793
246.646	2.42561
246.263	2.40637
246.139	2.4043
245.879	2.39148
245.754	2.39146
245.509	2.38068
245.37	2.37861
245.129	2.36374
244.866	2.35935
244.611	2.34422
244.488	2.34216
244.232	2.32933
244.108	2.32931
243.856	2.31214
243.732	2.31212
243.479	2.29725
243.356	2.29722
243.105	2.28005
242.982	2.28003
242.73	2.26516
242.609	2.26284
242.357	2.25001
242.236	2.24795
241.986	2.23307
241.866	2.23075
241.616	2.21793
241.495	2.21586
241.262	2.20099
241.126	2.20097
240.893	2.18584
240.758	2.18582
240.527	2.16865
240.392	2.16863
240.162	2.15171
240.029	2.14939
239.797	2.13656
239.664	2.13449
239.434	2.11962
239.301	2.1173
239.073	2.10039
238.941	2.09806
238.711	2.08524
238.578	2.08521
238.351	2.06804
238.22	2.06597
237.749	2.04033
237.633	2.03826
237.391	2.02543
237.275	2.02311
237.035	2.00824
236.804	2.00385
236.565	1.98898
236.45	1.98666
236.215	1.96744
235.971	1.96331
235.749	1.94613
235.62	1.94407
235.398	1.92894
235.27	1.92687
235.047	1.91405
234.919	1.91198
234.699	1.89686
234.571	1.89479
234.35	1.88196
234.223	1.87964
234.003	1.86477
233.876	1.8627
233.656	1.84988
233.53	1.84755
233.2	1.83062
233.074	1.82829
232.856	1.81343
232.62	1.80903
232.389	1.79416
232.167	1.78977
231.828	1.77054
231.703	1.76847
231.365	1.75127
231.255	1.74921
231.024	1.73843
230.915	1.73636
230.578	1.71917
230.469	1.7171
230.243	1.70198
230.011	1.69758
229.798	1.68476
229.676	1.68269
229.464	1.66987
229.233	1.66548
228.902	1.64854
228.793	1.64852
228.462	1.63133
228.355	1.62926
228.131	1.61848
227.903	1.61409
227.576	1.5969
227.363	1.59276
227.036	1.57557
226.916	1.57555
226.591	1.55836
226.38	1.55422
226.159	1.54344
226.053	1.54342
225.833	1.53264
225.728	1.53058
225.509	1.51979
225.403	1.51977
225.186	1.50695
225.081	1.50488
224.862	1.49615
224.655	1.48971
224.538	1.48969
224.115	1.47273
224.01	1.47271
223.794	1.46193
223.576	1.45754
223.258	1.44469
222.938	1.43824
222.736	1.42976
222.62	1.42974
222.203	1.41457
221.886	1.40811
221.371	1.39113
221.156	1.38879
220.843	1.38029
220.628	1.38024
220.428	1.37586
220.003	1.36938
219.591	1.3652
219.38	1.36081
218.969	1.35868
217.018	1.36032
216.612	1.36663
216.306	1.36861
216.098	1.37292
215.891	1.37492
215.585	1.38125
215.487	1.38557
215.281	1.38757
215.183	1.3919
214.989	1.3939
214.781	1.40255
214.079	1.42158
213.872	1.43202
213.572	1.44065
213.474	1.44702
213.066	1.45972
212.968	1.46813
212.669	1.47881
212.57	1.48952
212.367	1.49792
