Uv/Vis Spectrum: Methane, nitro-
Formula: CH3NO2
CAS: 75-52-5
Melting point: -28.5
Boiling point: 101.1
Instrument: n.i.g.
Origin: INSTITUTE OF ENERGY PROBLEMS OF CHEMICAL PHYSICS, RAS
Wavelength (nm)	Logarithm epsilon
341.004	0.090963
338.441	0.128755
335.899	0.166637
333.387	0.204771
333.387	0.204771
333.157	0.211708
332.91	0.218667
332.655	0.225619
332.655	0.225619
331.031	0.246031
330.348	0.256742
330.01	0.266866
330.01	0.266866
328.005	0.300769
326.022	0.334695
324.063	0.368696
322.125	0.402708
320.207	0.436751
318.31	0.470822
316.431	0.504892
316.431	0.504892
315.969	0.516839
315.509	0.528891
315.049	0.541167
315.049	0.541167
314.549	0.547122
314.036	0.553094
313.517	0.559056
313.517	0.559056
309.075	0.643255
306.698	0.688562
305.467	0.710473
304.536	0.724522
304.536	0.724522
304.497	0.728646
304.443	0.732988
304.383	0.737439
304.383	0.737439
302.541	0.767015
301.065	0.792504
299.361	0.820425
299.361	0.820425
299.271	0.824549
299.175	0.828892
299.065	0.833345
299.065	0.833345
298.859	0.833988
298.653	0.834853
298.447	0.83583
298.447	0.83583
294.79	0.900482
292.476	0.940492
291.171	0.963074
290.576	0.975459
290.576	0.975459
288.198	1.00977
285.852	1.04418
283.533	1.07882
283.533	1.07882
282.264	1.09238
281.001	1.10616
279.737	1.12006
279.737	1.12006
275.529	1.15332
273.882	1.16813
273.303	1.17721
273.303	1.17721
271.188	1.18245
269.986	1.18438
268.65	1.18466
268.65	1.18466
267.748	1.18153
266.852	1.17818
265.962	1.17472
265.962	1.17472
265.24	1.16776
264.522	1.16081
263.808	1.15385
263.808	1.15385
261.934	1.1185
260.538	1.08899
258.431	1.04006
258.431	1.04006
257.209	0.999991
256.65	0.983888
256.267	0.977943
256.267	0.977943
254.452	0.935064
252.654	0.891961
250.877	0.848749
250.877	0.848749
250.237	0.842678
249.82	0.837266
249.267	0.82788
249.267	0.82788
247.253	0.831134
246.282	0.835056
245.69	0.838314
245.69	0.838314
244.672	0.871754
243.654	0.905413
242.64	0.939185
242.64	0.939185
241.746	0.985341
241.188	1.01891
240.827	1.03757
240.827	1.03757
240.569	1.0672
240.066	1.11362
239.154	1.20553
239.154	1.20553
239.097	1.22605
239.035	1.24679
238.965	1.26764
238.965	1.26764
238.566	1.30565
238.06	1.36447
237.59	1.41948
237.3	1.44603
237.3	1.44603
236.9	1.50033
236.572	1.53981
236.254	1.57436
235.884	1.61385
235.401	1.66815
235.401	1.66815
235.174	1.68337
234.891	1.70941
234.544	1.73324
234.544	1.73324
233.767	1.81189
233.285	1.85933
232.891	1.89466
232.386	1.93697
