Uv/Vis Spectrum: Selenophene, 2-methyl
Formula: C5H6Se
CAS: 7559-42-4
Instrument: Spectrophotometer SF-4
Origin: INSTITUTE OF ENERGY PROBLEMS OF CHEMICAL PHYSICS, RAS
Wavelength (nm)	Logarithm epsilon
226.47	3.751
227.3	3.751
228.14	3.751
228.98	3.751
229.83	3.751
230.69	3.755
231.55	3.762
232.42	3.774
233.3	3.777
234.18	3.788
235.07	3.795
235.87	3.806
236.77	3.813
237.68	3.823
238.59	3.826
239.52	3.829
240.45	3.829
241.39	3.829
242.33	3.833
243.28	3.833
244.24	3.836
245.21	3.839
246.19	3.839
247.17	3.842
248.16	3.845
249.16	3.845
250.17	3.845
251.18	3.849
252.21	3.849
253.24	3.849
254.28	3.852
255.33	3.849
256.39	3.842
257.33	3.833
258.29	3.819
259.25	3.809
260.1	3.788
260.83	3.766
261.69	3.747
262.55	3.723
263.29	3.697
264.04	3.665
264.8	3.635
265.55	3.598
266.32	3.557
267.08	3.518
267.85	3.476
268.76	3.43
269.8	3.405
270.85	3.378
272.04	3.368
273.11	3.339
274.32	3.339
275.54	3.329
276.77	3.329
