Uv/Vis Spectrum: Methane, dibromodifluoro-
Formula: CBr2F2
CAS: 75-61-6
Melting point: - 110.1
Boiling point: 25
Instrument: Beckman DU
Origin: INSTITUTE OF ENERGY PROBLEMS OF CHEMICAL PHYSICS, RAS
Wavelength (nm)	Logarithm epsilon
213.86	2.691
214.01	2.697
214.16	2.7
214.3	2.703
214.45	2.707
214.6	2.71
214.75	2.716
214.9	2.719
215.05	2.722
215.2	2.725
215.35	2.731
215.35	2.728
215.5	2.731
215.65	2.734
216.09	2.749
216.24	2.752
216.84	2.767
217.43	2.791
217.58	2.794
218.03	2.818
218.33	2.821
218.63	2.818
219.07	2.834
219.22	2.834
219.82	2.834
220.41	2.84
220.56	2.843
221.01	2.846
221.31	2.849
221.61	2.852
222.05	2.861
222.2	2.864
223.99	2.867
224.29	2.867
224.59	2.867
225.03	2.861
225.18	2.858
225.78	2.858
226.37	2.855
226.52	2.855
226.97	2.846
227.27	2.84
227.57	2.858
229.5	2.812
230.25	2.797
230.99	2.779
231.74	2.752
232.48	2.731
233.23	2.719
233.97	2.697
234.72	2.673
235.46	2.646
236.21	2.622
236.95	2.598
237.7	2.592
238.44	2.537
239.19	2.507
239.93	2.48
240.68	2.452
241.42	2.428
242.17	2.401
242.91	2.392
243.66	2.368
244.4	2.328
245.15	2.301
245.89	2.265
246.64	2.228
247.38	2.168
248.13	2.156
248.87	2.11
249.62	2.071
250.36	2.026
251.11	1.965
251.85	1.944
252.6	1.905
253.34	1.853
254.09	1.811
254.83	1.766
255.58	1.717
256.32	1.678
257.07	1.651
257.81	1.602
258.56	1.563
259.3	1.517
260.05	1.469
261.54	1.387
262.28	1.348
263.03	1.303
263.77	1.266
264.52	1.224
265.26	1.175
266.01	1.109
266.75	1.073
267.5	1.027
268.25	0.982
268.99	0.939
269.74	0.888
270.48	0.837
271.23	0.788
271.97	0.752
272.72	0.703
273.46	0.655
274.21	0.607
274.95	0.552
275.7	0.47
276.44	0.455
277.19	0.398
277.93	0.356
278.68	0.298
279.42	0.244
280.17	0.201
280.91	0.147
281.66	0.092
282.4	0.035
283.15	-0.02
283.89	-0.074
