Uv/Vis Spectrum: 2-Methyl-2-propanethiol
Formula: C4H10S
CAS: 75-66-1
Melting point: -0.5
Boiling point: 64.3
Instrument: Beckman DU
Origin: INSTITUTE OF ENERGY PROBLEMS OF CHEMICAL PHYSICS, RAS
Wavelength (nm)	Logarithm epsilon
211.728	2.50799
212.218	2.47572
212.696	2.44017
213.195	2.40278
213.745	2.36499
214.38	2.32824
215.13	2.29399
216.029	2.26367
217.107	2.23874
217.107	2.23874
217.946	2.23334
218.474	2.22743
218.841	2.22348
219.026	2.22137
220.435	2.22425
222.102	2.2295
225.154	2.23774
226.743	2.25091
228.679	2.24984
230.53	2.24788
232.393	2.24334
234.365	2.23451
234.365	2.23451
236.25	2.20628
238.138	2.17795
240.034	2.14943
240.034	2.14943
241.448	2.12074
242.867	2.09201
244.289	2.0632
245.713	2.03428
245.713	2.03428
246.697	2.00903
247.812	1.98037
248.976	1.9493
250.109	1.91685
251.128	1.88401
251.953	1.8518
252.503	1.82124
252.503	1.82124
254.473	1.7405
255.709	1.68894
256.394	1.65995
256.714	1.6469
256.853	1.64318
256.853	1.64318
257.393	1.60592
258.145	1.52397
258.187	1.56909
258.399	1.5234
258.656	1.52264
258.838	1.52848
258.921	1.52179
258.921	1.52179
259.642	1.47991
260.387	1.43796
261.204	1.39615
262.143	1.35472
262.143	1.35472
262.489	1.321
262.936	1.29042
263.341	1.27229
263.341	1.27229
263.825	1.23864
264.303	1.20492
264.777	1.17113
265.246	1.13727
265.71	1.10334
266.17	1.06935
266.625	1.03529
267.077	1.00117
267.523	0.967
267.966	0.932773
268.405	0.898489
268.84	0.864155
269.271	0.829773
269.698	0.795345
270.122	0.760875
270.542	0.72636
270.958	0.691806
271.371	0.657218
271.781	0.622597
272.188	0.587947
272.592	0.553264
272.992	0.518553
273.39	0.48383
273.785	0.449077
274.177	0.414305
274.566	0.379505
274.566	0.379505
274.832	0.343487
275.165	0.307368
275.545	0.271168
275.949	0.234871
276.358	0.19841
276.75	0.161817
277.104	0.125058
277.4	0.088136
277.616	0.050998
