Uv/Vis Spectrum: Methane, bromotrifluoro-
Formula: CBrF3
CAS: 75-63-8
Melting point: -172
Boiling point: -57.8
Instrument: Beckman DU
Origin: INSTITUTE OF ENERGY PROBLEMS OF CHEMICAL PHYSICS, RAS
Wavelength (nm)	Logarithm epsilon
205.512	1.42442
205.907	1.44875
208.355	1.50191
208.451	1.50344
208.551	1.50497
208.659	1.5065
210.714	1.50268
211.023	1.50165
211.341	1.50053
211.341	1.50053
211.761	1.49522
212.185	1.48991
212.903	1.47815
213.037	1.47177
213.171	1.46557
213.171	1.46557
213.494	1.46027
217.815	1.36214
218.832	1.33671
222.238	1.2277
222.732	1.20891
223.322	1.19098
223.322	1.19098
223.549	1.18083
223.713	1.1755
223.952	1.17043
223.952	1.17043
224.207	1.15254
224.471	1.13464
225.51	1.08809
228.831	0.933113
229.507	0.898204
231.436	0.808265
233.96	0.67255
234.516	0.640948
236.264	0.536028
237.772	0.449463
237.772	0.449463
238.175	0.42318
238.577	0.396914
241.761	0.183099
242.24	0.153876
242.719	0.124635
243.198	0.095344
243.677	0.066065
246.536	-0.117305
247.016	-0.152798
248.133	-0.234331
248.452	-0.254223
248.452	-0.254223
249.189	-0.306801
249.601	-0.337998
249.837	-0.360016
250.996	-0.443215
252.754	-0.59363
252.927	-0.606776
252.927	-0.606776
253.045	-0.61997
253.248	-0.638083
253.54	-0.662541
253.927	-0.694649
254.413	-0.735654
255.93	-0.85855
256.336	-0.89279
256.829	-0.940437
