Uv/Vis Spectrum: Silane, tetramethyl-
Formula: C4H12Si
CAS: 75-76-3
Instrument: unknown
Origin: INSTITUTE OF ENERGY PROBLEMS OF CHEMICAL PHYSICS, RAS
Wavelength (nm)	Logarithm epsilon
141.16	4.084
141.8	4.07
142.32	4.056
142.85	4.042
143.49	4.027
144.01	4.011
144.65	3.995
145.28	3.981
145.81	3.964
146.44	3.946
147.08	3.93
147.71	3.913
148.35	3.893
148.98	3.872
149.72	3.853
150.46	3.833
151.09	3.812
151.73	3.79
152.47	3.767
153.21	3.747
154.05	3.73
155	3.721
155.95	3.73
156.8	3.743
157.54	3.763
158.28	3.783
159.02	3.801
159.75	3.823
160.49	3.84
161.34	3.856
162.18	3.869
163.14	3.878
164.09	3.881
165.04	3.875
165.88	3.862
166.62	3.846
167.25	3.83
168.03	3.808
168.73	3.783
169.37	3.759
170	3.73
170.5	3.704
171.16	3.67
171.8	3.634
172.33	3.595
172.96	3.552
173.53	3.505
174.12	3.458
174.8	3.404
175.5	3.338
176.24	3.269
176.97	3.187
177.71	3.105
178.56	3.003
179.4	2.9
180.36	2.776
181.2	2.677
