Uv/Vis Spectrum: 2-Butanone, 3,3-dimethyl-
Formula: C6H12O
CAS: 75-97-8
Boiling point: 106
Instrument: Hitachi 323
Origin: INSTITUTE OF ENERGY PROBLEMS OF CHEMICAL PHYSICS, RAS
Wavelength (nm)	Logarithm epsilon
217.9	1.41
218.02	1.401
218.23	1.382
218.53	1.359
218.9	1.333
219.31	1.303
219.81	1.269
220.45	1.227
221.1	1.188
221.74	1.158
222.38	1.125
223.03	1.085
223.67	1.048
224.31	1.015
224.96	0.969
225.6	0.936
226.24	0.89
226.89	0.85
227.53	0.803
228.17	0.759
228.73	0.71
229.46	0.652
229.72	0.629
229.85	0.617
229.92	0.61
229.99	0.604
230.11	0.593
230.2	0.585
230.38	0.569
230.6	0.552
230.92	0.528
231.52	0.484
232.16	0.438
232.8	0.404
233.45	0.376
234.09	0.357
234.71	0.344
235.38	0.337
235.97	0.334
236.71	0.337
237.39	0.346
237.97	0.353
238.59	0.367
239.29	0.382
239.88	0.395
240.45	0.406
241.06	0.418
241.77	0.437
242.45	0.454
243.1	0.469
243.74	0.486
244.32	0.501
245.07	0.522
245.67	0.54
246.31	0.565
246.96	0.589
247.6	0.617
248.24	0.638
249.14	0.677
250.06	0.711
250.64	0.738
251.2	0.763
251.33	0.767
251.46	0.77
251.59	0.774
251.72	0.778
251.84	0.782
251.97	0.785
252.1	0.789
252.23	0.793
252.36	0.796
252.49	0.8
252.62	0.803
252.74	0.807
252.84	0.809
253.15	0.819
253.35	0.83
253.77	0.844
254.42	0.866
255.02	0.888
255.7	0.912
256.31	0.932
256.95	0.954
257.63	0.978
258.31	1
259.23	1.028
260.21	1.048
260.33	1.05
260.44	1.051
260.58	1.052
260.67	1.053
260.77	1.054
260.92	1.056
261.11	1.058
261.29	1.06
261.49	1.062
262.14	1.07
262.78	1.077
263.42	1.083
264.07	1.092
264.71	1.101
265.35	1.113
265.99	1.127
266.64	1.143
267.14	1.157
267.48	1.167
267.75	1.178
268.02	1.188
268.3	1.197
268.57	1.201
268.88	1.201
269.21	1.199
269.85	1.194
270.5	1.189
271.14	1.189
271.78	1.192
272.43	1.198
273.07	1.205
273.71	1.213
274.37	1.221
275	1.231
275.64	1.24
276.29	1.248
276.93	1.255
277.57	1.261
278.22	1.267
278.81	1.272
279.42	1.275
280.15	1.279
280.79	1.282
282.08	1.288
282.77	1.291
283.36	1.293
283.99	1.295
284.62	1.297
285.29	1.299
285.93	1.3
286.58	1.3
287.28	1.3
287.86	1.299
288.51	1.298
289.15	1.297
289.79	1.294
290.44	1.292
291.06	1.289
291.7	1.286
292.37	1.282
292.91	1.278
293.49	1.275
294.31	1.27
294.94	1.266
295.58	1.261
296.23	1.254
296.87	1.245
297.51	1.237
298.19	1.229
298.9	1.22
299.44	1.21
300.09	1.202
300.78	1.19
301.37	1.18
302.02	1.17
302.66	1.158
303.3	1.145
303.95	1.137
304.52	1.125
305.23	1.113
306.52	1.086
307.16	1.07
307.8	1.05
308.45	1.025
309.08	1.005
309.73	0.978
310.38	0.959
311.02	0.941
311.66	0.918
312.3	0.894
312.95	0.869
313.54	0.849
314.24	0.824
314.88	0.8
315.52	0.774
316.12	0.749
316.81	0.718
317.45	0.687
318.05	0.654
318.74	0.617
319.38	0.577
320.03	0.546
320.67	0.499
321.31	0.438
321.98	0.394
322.59	0.346
323.19	0.308
323.89	0.258
324.53	0.205
325.17	0.145
325.81	0.094
326.46	0.036
327.1	-0.031
327.48	-0.086
328.09	-0.186
329.03	-0.286
329.67	-0.332
330.32	-0.383
