Uv/Vis Spectrum: 3-Methyl-1-pentene
Formula: C6H12
CAS: 760-20-3
Melting point: - 154
Boiling point: 54
Instrument: Beckman DU
Origin: INSTITUTE OF ENERGY PROBLEMS OF CHEMICAL PHYSICS, RAS
Wavelength (nm)	Logarithm epsilon
170	0
171	4.03
172	4.05
173	4.06
174	4.07
175	4.06
176	4.09
177	4.1
178	4.1
179	4.06
180	0.029992
181	4.01
182	4
183	3.96
184	3.88
185	3.77
186	3.71
187	3.69
188	3.53
189	3.37
