Uv/Vis Spectrum: 4-Phenylazophenyl isothiocyanate
Formula: C13H9N3S
CAS: 7612-96-6
Melting point: 125
Instrument: JASCO ORD/UV
Origin: INSTITUTE OF ENERGY PROBLEMS OF CHEMICAL PHYSICS, RAS
Wavelength (nm)	Logarithm epsilon
205.76	4.546
206.33	4.534
207.48	4.44
209.21	4.374
210.94	4.32
212.66	4.28
214.39	4.251
216.12	4.234
217.84	4.229
219.57	4.234
221.29	4.24
223.02	4.251
224.75	4.26
226.47	4.271
228.2	4.283
229.93	4.291
233.38	4.294
235.11	4.286
236.83	4.263
238.56	4.234
240.29	4.18
242.01	4.149
243.74	4.137
245.47	4.126
247.19	4.097
248.92	4.06
250.65	4.014
252.37	3.96
254.1	3.877
255.83	3.811
257.55	3.757
259.28	3.74
261.01	3.729
262.73	3.723
264.46	3.723
266.19	3.731
267.91	3.737
269.64	3.746
271.37	3.751
273.09	3.763
274.82	3.771
276.55	3.777
278.27	3.8
280	3.823
281.73	3.851
283.45	3.877
285.18	3.903
286.91	3.923
288.63	3.949
290.36	3.971
292.09	3.997
293.81	4.017
295.54	4.04
297.27	4.054
298.99	4.074
300.72	4.094
302.45	4.117
304.17	4.137
305.9	4.166
307.63	4.189
309.35	4.203
311.08	4.223
312.81	4.254
314.53	4.28
316.26	4.3
317.99	4.32
319.71	4.34
321.44	4.354
323.17	4.371
324.89	4.391
326.62	4.409
328.35	4.426
330.07	4.437
331.8	4.449
333.53	4.469
335.25	4.48
336.98	4.486
338.71	4.491
340.43	4.5
342.16	4.5
343.88	4.494
345.61	4.491
347.34	4.489
349.06	4.489
350.79	4.486
352.52	4.463
354.24	4.429
355.97	4.397
357.7	4.349
359.42	4.3
361.15	4.269
362.88	4.24
364.6	4.206
366.33	4.177
368.06	4.154
369.78	4.126
371.51	4.097
373.24	4.066
374.96	4.02
376.69	3.986
378.42	3.946
380.14	3.849
381.87	3.734
383.6	3.18
384.17	3.18
385.32	3.14
387.05	3.111
388.78	3.097
390.5	3.08
392.23	3.066
393.96	3.051
395.68	3.04
397.41	3.029
399.14	3.026
400.86	3.023
402.59	3.02
404.32	3.017
406.04	3.023
407.77	3.026
409.5	3.031
411.22	3.04
412.95	3.046
414.68	3.051
416.4	3.057
418.13	3.069
419.86	3.074
421.58	3.08
423.31	3.091
425.04	3.1
426.76	3.106
428.49	3.109
430.22	3.114
431.94	3.12
433.67	3.126
435.4	3.131
437.12	3.131
438.85	3.134
440.58	3.134
442.3	3.137
444.03	3.14
445.76	3.143
447.48	3.143
449.21	3.143
450.94	3.143
452.66	3.143
454.39	3.143
456.12	3.134
457.84	3.131
459.57	3.131
461.29	3.129
463.02	3.126
464.75	3.117
466.47	3.114
468.2	3.109
469.93	3.106
471.65	3.097
473.38	3.091
475.11	3.086
478.56	3.071
480.29	3.066
482.01	3.063
483.74	3.054
485.47	3.049
