Uv/Vis Spectrum: Dewar benzene, hexamethyl-
Formula: C12H18
CAS: 7641-77-2
Boiling point: 43.0-45.0/ 15 mm
Instrument: SF-16
Origin: INSTITUTE OF ENERGY PROBLEMS OF CHEMICAL PHYSICS, RAS
Wavelength (nm)	Logarithm epsilon
201.1	3.463
201.66	3.447
202.76	3.409
204.42	3.393
206.07	3.377
207.73	3.371
209.39	3.366
211.04	3.366
212.7	3.366
214.35	3.366
216.01	3.361
217.67	3.355
219.32	3.339
220.98	3.323
222.64	3.285
224.29	3.247
225.95	3.182
227.6	3.129
229.26	3.096
230.92	3.048
232.57	2.994
234.23	2.945
235.89	2.891
237.54	2.826
239.2	2.767
240.85	2.702
242.51	2.637
244.17	2.556
245.82	2.481
247.48	2.362
249.14	2.238
250.79	2.108
252.45	2.006
