Uv/Vis Spectrum: 2,4-Hexadiene, 2,5-dimethyl-
Formula: C8H14
CAS: 764-13-6
Melting point: 14
Boiling point: 134.5
Instrument: Unicam SP 500, Beckman DU, Cary 14
Origin: INSTITUTE OF ENERGY PROBLEMS OF CHEMICAL PHYSICS, RAS
Wavelength (nm)	Logarithm epsilon
285.469	2.19683
284.478	2.33082
283.489	2.43307
282.5	2.51576
282.5	2.51576
281.378	2.66647
280.458	2.78549
279.705	2.88438
279.084	2.9692
278.563	3.04358
278.107	3.10986
277.687	3.16963
277.269	3.22405
276.823	3.27396
276.823	3.27396
276.509	3.31286
276.206	3.34859
275.913	3.38165
275.632	3.41239
275.36	3.44113
275.098	3.46812
274.845	3.49354
274.601	3.51758
274.366	3.54038
274.139	3.56206
273.919	3.58272
273.707	3.60246
273.501	3.62135
273.302	3.63946
273.109	3.65686
272.922	3.6736
272.741	3.68972
272.564	3.70528
272.392	3.7203
272.225	3.73482
272.061	3.74888
271.901	3.7625
271.745	3.77571
271.591	3.78853
271.44	3.80099
271.291	3.8131
271.144	3.82488
271.144	3.82488
271.034	3.83644
270.927	3.84769
270.822	3.85866
270.718	3.86936
270.617	3.87979
270.517	3.88998
270.419	3.89994
270.323	3.90967
270.228	3.91918
270.134	3.92849
270.041	3.9376
269.95	3.94652
269.859	3.95526
269.769	3.96383
269.68	3.97223
269.591	3.98047
269.503	3.98855
269.415	3.99649
269.327	4.00428
269.239	4.01194
269.152	4.01945
269.064	4.02684
268.976	4.03411
268.887	4.04125
268.799	4.04828
268.709	4.0552
268.619	4.062
268.528	4.0687
268.436	4.0753
268.343	4.08179
268.249	4.08819
268.154	4.0945
268.057	4.10071
267.959	4.10684
267.86	4.11288
267.758	4.11884
267.655	4.12471
267.55	4.13051
267.442	4.13623
267.333	4.14187
267.222	4.14744
267.108	4.15294
266.991	4.15837
266.873	4.16373
266.751	4.16903
266.627	4.17426
266.499	4.17942
266.369	4.18453
266.236	4.18958
266.099	4.19457
265.96	4.1995
265.96	4.1995
265.642	4.20749
265.387	4.21379
265.175	4.21885
264.989	4.22309
264.812	4.2269
264.626	4.23067
264.414	4.23477
264.159	4.23955
263.843	4.24534
263.843	4.24534
263.344	4.25246
262.886	4.25882
262.466	4.26451
262.079	4.26962
261.721	4.27425
261.39	4.27846
261.081	4.28233
260.79	4.28594
260.515	4.28935
260.251	4.29264
259.995	4.29586
259.743	4.29908
259.743	4.29908
259.572	4.30312
259.398	4.30713
259.222	4.3111
259.045	4.31504
258.866	4.31895
258.687	4.32282
258.507	4.32665
258.329	4.33046
258.152	4.33422
257.976	4.33796
257.803	4.34166
257.632	4.34533
257.465	4.34896
257.302	4.35256
257.144	4.35613
256.99	4.35966
256.842	4.36316
256.7	4.36662
256.7	4.36662
256.488	4.36943
256.217	4.37324
255.898	4.37755
255.543	4.38189
255.164	4.38582
254.773	4.3889
253.631	4.38864
252.911	4.38541
252.226	4.38149
251.582	4.37742
250.984	4.37374
250.984	4.37374
250.06	4.36411
249.663	4.36023
249.632	4.35764
249.576	4.35795
249.517	4.35825
249.452	4.35853
249.452	4.35894
249.452	4.35894
248.494	4.35778
247.911	4.35558
247.303	4.3517
247.303	4.3517
246.96	4.3481
246.617	4.3445
246.274	4.34087
245.932	4.33722
245.591	4.33353
245.253	4.32982
244.917	4.32605
244.583	4.32224
244.254	4.31837
243.929	4.31444
243.608	4.31044
243.293	4.30635
242.984	4.30218
242.984	4.30218
242.741	4.29832
242.498	4.29441
242.255	4.29047
242.013	4.2865
241.771	4.28248
241.529	4.27843
241.288	4.27434
241.048	4.27021
240.807	4.26605
240.567	4.26184
240.328	4.25758
240.089	4.25329
239.85	4.24895
239.612	4.24458
239.374	4.24015
239.137	4.23568
238.9	4.23116
238.664	4.22659
238.428	4.22198
238.192	4.21732
237.957	4.2126
237.722	4.20783
237.488	4.20301
237.254	4.19814
237.02	4.19321
236.787	4.18823
236.555	4.18318
236.323	4.17808
236.323	4.17808
235.903	4.16758
235.522	4.15779
235.176	4.1487
234.863	4.14027
234.579	4.13247
234.322	4.12528
234.088	4.11866
233.875	4.11254
233.681	4.10688
233.502	4.10162
233.336	4.09669
233.179	4.09204
233.03	4.08758
232.885	4.08324
232.743	4.07894
232.599	4.07461
232.453	4.07015
232.3	4.06548
232.139	4.06051
231.966	4.05515
231.78	4.04927
231.577	4.04279
231.577	4.04279
231.334	4.03601
231.085	4.02914
230.83	4.02217
230.569	4.01509
230.301	4.00791
230.028	4.00062
229.748	3.99323
229.463	3.98574
229.171	3.97813
228.872	3.97041
228.568	3.96258
228.257	3.95464
227.94	3.94658
227.616	3.93841
227.286	3.93011
226.95	3.9217
226.607	3.91317
226.257	3.90451
225.902	3.89572
225.54	3.88681
225.171	3.87777
224.796	3.8686
224.414	3.8593
224.026	3.84986
223.632	3.84029
223.231	3.83058
223.231	3.83058
222.596	3.81765
221.963	3.8043
221.328	3.79043
221.328	3.79043
219.825	3.76144
218.912	3.74279
218.419	3.73266
218.185	3.72844
218.053	3.72703
