Uv/Vis Spectrum: Thiophene, 2-(chloromethyl)-
Formula: C5H5ClS
CAS: 765-50-4
Instrument: n.i.g.
Origin: INSTITUTE OF ENERGY PROBLEMS OF CHEMICAL PHYSICS, RAS
Wavelength (nm)	Logarithm epsilon
212.72	3.506
213.04	3.511
213.37	3.517
213.7	3.524
214.02	3.53
214.67	3.546
215.65	3.598
216.63	3.613
217.61	3.643
218.59	3.674
219.57	3.691
220.54	3.719
221.52	3.743
222.5	3.754
223.48	3.779
224.46	3.785
225.43	3.803
227.39	3.846
228.37	3.861
229.35	3.868
230.33	3.875
231.3	3.882
232.28	3.89
234.24	3.896
235.22	3.895
236.2	3.895
237.17	3.894
239.13	3.886
240.11	3.869
241.09	3.859
242.07	3.848
243.04	3.834
244.02	3.823
245	3.806
245.98	3.784
246.96	3.754
247.93	3.719
248.91	3.67
249.89	3.613
250.87	3.552
251.85	3.448
252.83	3.316
253.8	3.098
254.13	2.291
