Uv/Vis Spectrum: Silane, dimethylphenyl-
Formula: C8H12Si
CAS: 766-77-8
Boiling point: 157/ 744 mm
Instrument: Spektromom 201
Origin: INSTITUTE OF ENERGY PROBLEMS OF CHEMICAL PHYSICS, RAS
Wavelength (nm)	Logarithm epsilon
214.18	3.519
214.56	3.545
215.01	3.57
215.49	3.592
216.16	3.613
216.84	3.616
217.51	3.606
218.18	3.589
218.86	3.569
219.53	3.538
220.2	3.504
220.88	3.463
221.55	3.415
222.22	3.354
222.9	3.279
223.57	3.17
224.24	3.03
224.92	2.928
225.59	2.781
226.26	2.655
226.94	2.543
227.61	2.451
228.28	2.393
228.96	2.338
229.63	2.277
230.3	2.205
230.98	2.141
231.65	2.089
232.32	2.045
233	2.001
233.67	1.984
234.34	1.984
235.02	1.984
235.69	1.987
236.36	1.994
237.04	2.001
237.71	2.014
238.38	2.028
239.06	2.045
239.73	2.059
240.4	2.072
241.08	2.086
241.75	2.1
242.42	2.11
243.1	2.127
243.77	2.141
244.44	2.147
245.12	2.161
245.79	2.175
246.46	2.181
247.14	2.192
247.81	2.195
248.48	2.198
249.16	2.209
249.83	2.209
250.51	2.216
251.18	2.226
251.85	2.236
252.53	2.25
253.2	2.256
253.87	2.267
254.55	2.273
255.22	2.28
255.89	2.273
256.57	2.256
257.24	2.243
257.91	2.246
258.59	2.253
259.26	2.27
259.93	2.294
260.61	2.314
260.94	2.324
261.28	2.328
261.57	2.329
261.95	2.314
262.3	2.29
262.63	2.263
262.92	2.243
263.3	2.229
263.94	2.221
264.65	2.229
265.32	2.246
265.55	2.253
265.78	2.251
266.02	2.236
266.24	2.23
266.67	2.229
266.98	2.233
267.34	2.229
267.74	2.206
268.01	2.181
268.69	2.13
269.36	2.083
269.67	2.067
270.03	2.055
270.36	2.051
270.71	2.055
270.99	2.066
271.38	2.069
271.73	2.067
272.05	2.055
272.73	1.977
273.4	1.902
274.07	1.83
274.75	1.728
275.42	1.66
276.09	1.595
276.77	1.524
277.44	1.459
278.11	1.387
278.79	1.316
279.46	1.244
280.13	1.166
280.81	1.084
281.48	1.002
282.15	0.927
282.83	0.852
283.5	0.77
284.18	0.719
284.85	0.641
285.52	0.573
286.2	0.505
286.87	0.436
287.54	0.372
288.22	0.307
288.89	0.239
289.56	0.177
