Uv/Vis Spectrum: Trimethylphenylsilane
Formula: C9H14Si
CAS: 768-32-1
Boiling point: 169.5
Instrument: Spectronom 201 UV
Origin: INSTITUTE OF ENERGY PROBLEMS OF CHEMICAL PHYSICS, RAS
Wavelength (nm)	Logarithm epsilon
210	4.04
211	4.05
212	3.98
213	3.95
214	3.93
