Uv/Vis Spectrum: Triphenylchlorosilane
Formula: C18H15ClSi
CAS: 76-86-8
Melting point: 111
Instrument: Spektromom 201
Origin: INSTITUTE OF ENERGY PROBLEMS OF CHEMICAL PHYSICS, RAS
Wavelength (nm)	Logarithm epsilon
201.52	4.745
201.85	4.716
202.39	4.68
203.21	4.636
204.06	4.588
204.9	4.544
205.74	4.492
206.59	4.445
207.43	4.411
207.92	4.388
208.56	4.367
209.09	4.359
209.61	4.368
209.97	4.38
210.81	4.39
211.51	4.385
212.47	4.372
213.35	4.363
214.19	4.349
215.04	4.332
215.88	4.319
216.73	4.309
217.57	4.295
218.42	4.274
219.26	4.251
220.11	4.23
220.95	4.206
221.8	4.183
222.64	4.152
223.49	4.118
224.33	4.084
225.18	4.06
226.02	4.039
226.86	4.012
227.71	3.965
228.55	3.907
229.4	3.828
230.24	3.753
231.09	3.655
231.93	3.498
232.78	3.382
233.62	3.253
234.47	3.133
235.31	2.99
236.16	2.864
237	2.755
237.85	2.629
238.69	2.517
239.54	2.408
240.38	2.384
241.23	2.398
242.07	2.415
242.92	2.432
243.76	2.459
244.61	2.483
245.45	2.517
246.29	2.551
247.14	2.582
247.98	2.602
248.83	2.619
249.67	2.653
250.52	2.684
251.36	2.714
252.72	2.783
252.88	2.786
253.05	2.789
253.22	2.796
253.39	2.8
253.56	2.803
253.73	2.806
253.9	2.813
254.07	2.817
254.41	2.817
254.74	2.817
255.08	2.81
255.42	2.803
255.76	2.803
256.09	2.8
256.43	2.803
256.77	2.806
257.11	2.82
257.45	2.834
257.78	2.847
258.12	2.861
258.43	2.877
258.77	2.894
259.14	2.912
259.45	2.925
259.81	2.936
260.15	2.946
260.49	2.953
260.83	2.96
261.16	2.953
261.5	2.932
261.84	2.909
262.18	2.902
262.5	2.896
262.81	2.901
263.18	2.908
263.53	2.922
263.87	2.936
264.2	2.95
264.55	2.958
264.86	2.961
265.23	2.949
265.56	2.932
265.89	2.919
266.23	2.902
266.57	2.888
266.91	2.871
267.25	2.854
267.58	2.837
267.92	2.817
268.26	2.803
268.6	2.796
268.94	2.793
269.27	2.796
269.61	2.803
269.95	2.817
270.29	2.827
270.63	2.837
270.96	2.834
271.3	2.82
271.64	2.806
271.98	2.789
272.31	2.758
272.65	2.725
272.99	2.701
273.33	2.677
273.67	2.65
274	2.626
274.34	2.582
274.75	2.501
275.13	2.417
275.43	2.352
275.69	2.292
276.03	2.197
276.37	2.095
276.71	2.003
277.05	1.924
277.38	1.849
277.72	1.791
278.06	1.734
278.4	1.682
278.74	1.628
279.07	1.56
279.41	1.522
279.75	1.478
280.09	1.434
