Uv/Vis Spectrum: cis-2-hexene
Formula: C6H12
CAS: 7688-21-3
Melting point: -141.1
Boiling point: 68.8
Instrument: Beckman DU
Origin: INSTITUTE OF ENERGY PROBLEMS OF CHEMICAL PHYSICS, RAS
Wavelength (nm)	Logarithm epsilon
170	4
171	4.01
172	4.04
173	4.07
174	4.09
175	4.08
176	4.08
177	4.1
178	4.11
179	4.1
180	4.04999
181	4.02
182	4.01
183	3.98
184	3.96
185	3.93
186	3.9
187	3.83
188	3.76
189	3.67
190	3.59001
191	3.51
192	3.43
193	3.39
194	3.36
195	3.29
196	3.16
197	3.05
198	2.99
199	2.94
