Uv/Vis Spectrum: Triphenylmethanol
Formula: C19H16O
CAS: 76-84-6
Melting point: 164.2
Boiling point: 380
Instrument: n.i.g.
Origin: INSTITUTE OF ENERGY PROBLEMS OF CHEMICAL PHYSICS, RAS
Wavelength (nm)	Logarithm epsilon
212.125	4.00465
212.184	4.02176
212.81	4.0277
212.869	4.04481
213.407	4.04462
213.426	4.0501
213.985	4.05607
214.004	4.06154
215.743	4.07805
215.783	4.08969
216.321	4.0895
216.34	4.09497
216.945	4.09476
216.964	4.10023
217.502	4.10004
218.061	4.10601
218.666	4.10579
219.222	4.11108
219.76	4.11089
220.384	4.11615
221.46	4.11576
221.481	4.12192
224.305	4.12092
224.821	4.11456
226.483	4.10849
226.502	4.11397
227.07	4.1028
227.607	4.10261
229.208	4.07874
229.229	4.0849
229.746	4.07855
230.313	4.06738
230.332	4.07285
230.83	4.06103
230.851	4.06719
231.349	4.05536
231.368	4.06083
231.914	4.04351
231.935	4.04967
232.412	4.03168
232.452	4.04332
232.931	4.02601
232.95	4.03149
233.469	4.02582
234.055	4.02013
237.805	3.81869
238.332	3.79589
238.41	3.81847
238.849	3.78953
239.408	3.7955
239.408	3.7955
239.427	3.80098
240.511	3.78346
240.53	3.78893
240.969	3.76
241.536	3.74883
241.555	3.75431
242.034	3.737
242.053	3.74248
242.513	3.7197
242.553	3.73134
243.059	3.70237
243.099	3.71401
243.519	3.67959
243.578	3.69671
244.036	3.67324
244.057	3.6794
245.12	3.65572
245.141	3.66188
245.62	3.64458
245.639	3.65006
246.204	3.6382
246.225	3.64436
246.624	3.60379
246.683	3.6209
246.723	3.63254
247.183	3.60976
247.202	3.61523
247.454	3.51235
247.492	3.5233
247.933	3.49505
247.992	3.51216
248.029	3.52311
248.53	3.51197
248.567	3.52292
249.496	3.46023
250.034	3.46003
251.656	3.44232
252.194	3.44213
252.799	3.44192
253.355	3.4472
254.498	3.44679
255.055	3.45208
255.095	3.46371
255.114	3.46919
255.114	3.46919
256.875	3.49186
257.412	3.49167
257.471	3.50878
258.095	3.51404
259.131	3.50202
259.171	3.51366
260.793	3.49595
260.812	3.50142
261.379	3.49025
261.917	3.49006
262.648	3.36988
263.164	3.36353
264.696	3.16287
265.204	3.1346
265.282	3.15718
265.643	3.10566
265.721	3.12824
266.082	3.07672
266.162	3.09999
266.628	3.05939
266.668	3.07103
267.107	3.04209
267.147	3.05372
267.605	3.03026
267.626	3.03642
268.105	3.01912
268.124	3.02459
268.689	3.01274
268.711	3.0189
269.208	3.00707
269.227	3.01255
270.311	2.99503
270.83	2.98936
270.849	2.99484
271.368	2.98917
274.73	2.98798
275.353	2.99323
275.375	2.99939
275.931	3.00468
276.469	3.00449
277.093	3.00975
277.631	3.00956
277.69	3.02667
278.249	3.03263
278.289	3.04427
278.913	3.04953
278.932	3.05501
279.491	3.06097
279.568	3.08356
280.125	3.08885
281.68	3.20822
282.239	3.21419
282.357	3.24841
282.962	3.24819
286.775	3.37841
286.813	3.38936
287.372	3.39533
287.91	3.39514
287.928	3.40061
291.25	3.38778
291.29	3.39941
291.769	3.38211
297.208	3.16293
297.609	3.12304
297.746	3.16274
300.342	2.9391
300.75	2.88139
300.83	2.90466
300.889	2.92177
300.926	2.93272
301.729	2.85294
301.788	2.87005
302.235	2.82398
302.313	2.84657
302.655	2.78957
302.754	2.81831
303.134	2.77226
303.174	2.7839
303.541	2.71455
303.718	2.76589
304.002	2.69177
304.06	2.70888
304.344	2.63477
304.539	2.69158
304.764	2.60036
304.861	2.62842
305.23	2.55976
305.348	2.59398
305.691	2.53698
305.749	2.55409
306.13	2.50804
306.207	2.53063
306.676	2.49072
306.716	2.50235
307.155	2.47341
307.195	2.48505
307.653	2.46159
307.693	2.47322
308.22	2.45042
308.239	2.45589
308.737	2.44407
308.758	2.45023
309.256	2.4384
310.936	2.4378
311.523	2.43211
312.079	2.43739
313.222	2.43699
314.962	2.4535
314.981	2.45897
316.096	2.47023
316.115	2.4757
316.72	2.47549
316.741	2.48165
317.298	2.48693
317.357	2.50404
317.895	2.50385
317.973	2.52644
318.578	2.52622
318.639	2.54402
319.195	2.5493
319.313	2.58352
319.87	2.58881
319.891	2.59497
320.515	2.60023
320.614	2.62897
324.654	2.84477
325.278	2.85003
325.396	2.88425
325.953	2.88954
326.033	2.91281
326.589	2.91809
332.712	3.23046
333.317	3.23024
333.395	3.25283
333.952	3.25811
334.013	3.27591
334.569	3.28119
334.628	3.2983
335.252	3.30356
335.311	3.32067
335.87	3.32664
335.948	3.34923
337.904	3.42871
338.461	3.43399
338.519	3.45111
339.143	3.45637
344.776	3.62637
344.795	3.63184
345.352	3.63713
345.411	3.65424
353.956	3.86843
354.582	3.87437
354.601	3.87985
355.158	3.88513
355.179	3.89129
356.322	3.89088
356.341	3.89636
356.897	3.90164
357.611	3.95279
358.238	3.95873
358.257	3.96421
358.813	3.96949
358.834	3.97565
359.391	3.98093
359.431	3.99257
360.055	3.99783
360.076	4.00399
360.614	4.0038
360.633	4.00927
361.19	4.01456
361.211	4.02072
361.816	4.0205
361.875	4.03761
375.521	4.26712
375.558	4.27807
375.599	4.2897
375.657	4.30682
376.176	4.30115
376.741	4.2893
376.76	4.29477
377.338	4.30622
390.906	4.51314
390.925	4.51861
392.108	4.52984
394.404	4.55164
395.029	4.55689
395.05	4.56306
396.789	4.57957
397.327	4.57937
409.807	4.62632
409.826	4.6318
416.011	4.62959
416.03	4.63507
417.105	4.63469
417.673	4.62352
417.692	4.62899
418.748	4.62314
418.767	4.62861
420.429	4.62254
420.448	4.62801
427.034	4.58592
427.053	4.59139
427.551	4.57957
427.572	4.58573
428.137	4.57387
428.156	4.57935
428.656	4.56821
429.778	4.56164
429.799	4.5678
430.297	4.55597
430.816	4.5503
430.835	4.55578
431.938	4.54374
431.959	4.5499
432.476	4.54355
442.089	4.40306
442.529	4.37412
442.587	4.39123
442.627	4.40287
443.155	4.38007
443.174	4.38554
443.192	4.39102
443.693	4.37988
444.737	4.35072
444.796	4.36783
445.234	4.33889
445.256	4.34505
445.753	4.33323
446.34	4.32753
446.358	4.33301
446.877	4.32734
452.71	4.22247
452.728	4.22795
453.726	4.20498
453.745	4.21045
454.291	4.19312
454.31	4.1986
455.308	4.17563
455.327	4.1811
455.873	4.16378
455.892	4.16925
456.89	4.14628
456.909	4.15176
457.455	4.13443
457.476	4.14059
457.974	4.12876
457.993	4.13424
458.472	4.11694
458.493	4.1231
468.388	3.90781
468.428	3.91945
468.975	3.90212
468.993	3.9076
469.454	3.88482
469.491	3.89577
469.951	3.87299
469.991	3.88463
470.516	3.86114
470.538	3.8673
471.017	3.85
471.035	3.85548
471.514	3.83817
471.533	3.84365
472.079	3.82632
472.101	3.83248
472.58	3.81518
472.599	3.82065
473.059	3.79787
473.096	3.80883
473.624	3.78602
473.643	3.7915
474.103	3.76872
474.143	3.78036
474.601	3.75689
474.641	3.76853
475.168	3.74573
475.187	3.7512
475.647	3.72842
475.685	3.73937
476.691	3.69927
476.75	3.71638
477.208	3.69292
477.229	3.69908
477.687	3.67561
477.727	3.68725
478.187	3.66447
478.206	3.66995
478.752	3.65262
478.771	3.65809
479.271	3.64695
479.809	3.64676
482.817	3.54289
