Uv/Vis Spectrum: Triphenylmethyl chloride
Formula: C19H15Cl
CAS: 76-83-5
Melting point: 113.5
Boiling point: 310
Instrument: n.i.g.
Origin: INSTITUTE OF ENERGY PROBLEMS OF CHEMICAL PHYSICS, RAS
Wavelength (nm)	Logarithm epsilon
362.418	3.08137
362.854	3.08361
363.293	3.09178
363.502	3.09981
363.914	3.10388
364.148	3.11169
364.56	3.11565
365.44	3.13451
365.649	3.1418
366.087	3.14723
366.299	3.15959
366.939	3.16125
367.152	3.17506
367.591	3.18169
367.801	3.1898
368.238	3.19311
368.447	3.19948
368.886	3.20575
369.095	3.21213
370.799	3.23459
371.038	3.24628
371.451	3.25056
371.664	3.26167
372.31	3.26988
372.546	3.27796
372.959	3.28193
373.195	3.28964
373.608	3.29351
373.843	3.29994
374.256	3.30372
374.466	3.30986
374.905	3.31488
375.113	3.3197
375.553	3.32447
376.202	3.33511
376.644	3.34317
377.055	3.3455
377.267	3.35337
377.705	3.35671
377.915	3.36215
378.352	3.36438
378.563	3.37089
379.001	3.3741
379.209	3.37716
379.645	3.3783
379.862	3.3907
380.301	3.39487
380.51	3.39889
380.949	3.40286
381.158	3.4068
381.598	3.41082
381.813	3.4205
382.224	3.42233
382.654	3.41759
382.666	3.42894
383.104	3.43175
383.315	3.43733
383.756	3.44195
383.966	3.4473
384.406	3.45096
384.615	3.45534
385.028	3.45799
385.464	3.45883
385.671	3.46061
385.679	3.4676
386.118	3.471
386.327	3.47437
386.765	3.4769
386.976	3.48193
387.414	3.48442
387.624	3.48848
388.063	3.49172
388.274	3.49658
388.716	3.50215
389.359	3.50453
389.569	3.5085
389.982	3.51084
390.217	3.51466
390.63	3.51771
390.865	3.52083
391.279	3.52383
391.295	3.53505
391.719	3.52754
391.731	3.53646
392.16	3.53201
392.167	3.53716
392.581	3.54014
392.791	3.54371
393.229	3.54587
393.439	3.54948
393.877	3.55161
394.313	3.55229
394.522	3.55509
394.961	3.55786
395.17	3.56071
395.583	3.56345
395.817	3.56618
396.231	3.56889
396.469	3.57361
396.881	3.57563
397.118	3.57964
397.328	3.58298
397.531	3.58227
397.743	3.58685
398.18	3.58818
398.388	3.59013
398.826	3.59207
399.035	3.59463
399.473	3.59655
399.681	3.59846
400.117	3.59907
400.325	3.60158
400.762	3.60286
400.971	3.60536
401.623	3.61223
401.829	3.61341
402.267	3.61525
402.474	3.6165
402.913	3.61891
403.121	3.62073
403.763	3.62195
404.2	3.62311
404.613	3.62548
405.049	3.62612
405.257	3.62791
405.694	3.62905
405.903	3.6314
406.34	3.6326
406.55	3.63556
407.396	3.63667
407.833	3.63785
408.243	3.63841
409.117	3.64069
409.324	3.64187
409.966	3.64359
411.252	3.64701
411.458	3.6481
411.896	3.64926
412.102	3.65041
412.539	3.65149
412.951	3.65264
413.59	3.65263
414.436	3.6537
415.079	3.65537
415.721	3.6565
416.362	3.65763
417.005	3.65923
417.85	3.65981
418.697	3.66146
419.133	3.66199
419.978	3.6625
420.62	3.66362
422.107	3.66524
422.543	3.66576
423.824	3.66686
424.873	3.66737
426.996	3.66734
429.553	3.66679
430.623	3.66461
430.827	3.66401
431.462	3.66183
432.096	3.65903
432.733	3.65742
434.415	3.65458
434.85	3.65457
435.259	3.65403
435.69	3.65234
435.895	3.65233
436.325	3.65009
436.53	3.65009
436.962	3.64838
437.166	3.64838
437.598	3.64666
437.801	3.64604
438.233	3.64438
438.438	3.64438
438.868	3.64202
439.477	3.63917
439.711	3.64146
439.919	3.64319
440.548	3.63741
440.752	3.63684
441.182	3.63445
441.386	3.63388
441.816	3.63154
442.02	3.6309
442.45	3.62854
442.654	3.62796
443.085	3.62559
443.288	3.62494
443.715	3.62015
443.918	3.61956
444.555	3.61773
444.961	3.61589
445.19	3.61529
445.593	3.61159
445.822	3.61092
446.226	3.60785
446.455	3.60724
446.858	3.60347
447.061	3.60278
447.491	3.59966
447.695	3.59966
447.926	3.59965
448.122	3.5945
448.547	3.58874
448.752	3.58873
449.382	3.58281
450.218	3.57817
450.42	3.57615
450.648	3.57478
450.849	3.57275
451.053	3.5721
451.48	3.56734
451.684	3.56668
452.111	3.56178
452.315	3.56111
452.743	3.55691
452.947	3.55624
453.374	3.55131
453.578	3.55062
454.005	3.54554
454.409	3.54197
454.613	3.54127
455.04	3.53607
455.244	3.53536
455.668	3.52794
455.868	3.52495
456.094	3.52195
456.297	3.52039
456.731	3.51965
457.129	3.51195
457.334	3.51195
457.756	3.50249
457.959	3.50172
458.384	3.4937
458.587	3.49281
459.011	3.48462
459.215	3.48382
459.641	3.47708
459.845	3.47627
460.274	3.47208
460.682	3.47032
461.932	3.44662
462.135	3.44564
462.555	3.43281
462.759	3.43191
463.183	3.42247
463.387	3.42154
463.814	3.41469
464.018	3.41375
466.103	3.37818
466.333	3.37716
466.733	3.36865
467.166	3.36643
467.566	3.3565
467.795	3.35543
468.197	3.34757
468.427	3.34757
468.829	3.33957
469.058	3.33831
469.455	3.32427
470.305	3.33139
472.189	3.29192
472.197	3.30082
472.62	3.2866
472.824	3.28533
473.252	3.27737
473.456	3.27608
473.884	3.26795
474.291	3.2653
474.926	3.25964
477.021	3.22042
477.251	3.22041
477.653	3.20966
477.858	3.20965
478.285	3.19862
478.488	3.19707
482.492	3.13499
482.696	3.13498
483.124	3.12162
483.328	3.12161
483.756	3.10806
483.959	3.10616
486.917	3.03536
487.121	3.0331
487.549	3.01876
487.752	3.01613
488.156	3.00151
488.386	3.0015
488.789	2.98607
489.424	2.97523
489.856	2.97003
492.401	2.93319
493.005	2.90572
493.642	2.89959
493.87	2.89302
494.277	2.88633
494.507	2.88314
495.757	2.87298
496.623	2.86262
497.261	2.85584
498.739	2.83756
