Uv/Vis Spectrum: 2-methyl-1-phenyl-2-propen1-one
Formula: C10H10O
CAS: 769-60-8
Boiling point: 56.7-57.5/ 1 mm
Instrument: unknown
Origin: INSTITUTE OF ENERGY PROBLEMS OF CHEMICAL PHYSICS, RAS
Wavelength (nm)	Logarithm epsilon
255.631	4.029
255.855	4.028
256.855	4.029
257.855	4.028
258.855	4.015
259.855	3.984
260.855	3.934
261.855	3.868
262.855	3.793
263.855	3.716
264.855	3.645
265.855	3.586
266.855	3.542
267.855	3.513
268.644	3.5
269.644	3.466
270.644	3.432
271.644	3.397
272.644	3.364
273.644	3.333
274.644	3.305
275.644	3.278
276.644	3.252
277.644	3.227
278.644	3.203
279.644	3.179
280.644	3.154
281.644	3.129
282.644	3.103
283.644	3.076
284.644	3.047
285.644	3.018
286.644	2.987
287.644	2.954
288.644	2.918
289.644	2.877
290.632	2.83
291.632	2.757
292.632	2.69
293.632	2.627
294.632	2.566
295.632	2.506
296.632	2.446
297.632	2.385
298.632	2.323
299.632	2.26
300.632	2.196
301.632	2.133
302.632	2.07
303.632	2.011
304.632	1.956
305.632	1.908
306.632	1.87
307.46	1.847
308.46	1.834
309.46	1.832
310.46	1.836
311.46	1.845
312.46	1.855
313.46	1.866
314.46	1.876
315.46	1.885
316.46	1.892
317.46	1.899
318.46	1.904
319.46	1.909
320.46	1.913
321.46	1.917
322.46	1.921
323.46	1.926
324.46	1.932
325.46	1.938
326.46	1.944
327.46	1.951
328.46	1.958
329.46	1.964
330.46	1.969
331.46	1.973
332.46	1.975
333.46	1.974
334.46	1.972
335.46	1.968
336.46	1.962
337.46	1.957
337.525	1.956
338.525	1.955
339.525	1.953
340.525	1.951
341.525	1.947
342.525	1.943
343.525	1.938
344.525	1.931
345.525	1.924
346.525	1.915
347.525	1.904
348.525	1.893
349.525	1.881
350.525	1.868
351.525	1.855
352.525	1.84
353.525	1.825
354.525	1.81
355.525	1.794
356.525	1.778
357.525	1.76
358.525	1.742
359.525	1.722
360.525	1.7
361.525	1.676
362.429	1.652
363.429	1.617
364.429	1.584
365.429	1.552
366.429	1.52
367.429	1.488
368.429	1.455
369.429	1.422
370.429	1.386
371.429	1.35
372.429	1.312
373.429	1.274
374.429	1.234
375.429	1.193
376.429	1.152
377.429	1.11
378.429	1.068
379.429	1.026
380.429	0.984
381.429	0.942
382.3	0.9
383.3	0.863
384.3	0.821
385.3	0.776
386.3	0.727
387.3	0.676
388.3	0.623
389.3	0.569
390.3	0.515
391.3	0.462
392.3	0.409
393.3	0.357
394.3	0.306
395.3	0.255
396.3	0.205
397.3	0.155
398.3	0.103
