Uv/Vis Spectrum: Benzenamine, N,N,2,6-tetramethyl-
Formula: C10H15N
CAS: 769-06-2
Boiling point: 196
Instrument: SF-4
Origin: INSTITUTE OF ENERGY PROBLEMS OF CHEMICAL PHYSICS, RAS
Wavelength (nm)	Logarithm epsilon
227.92	3.402
229.26	3.389
230.78	3.376
232.29	3.363
233.81	3.354
235.33	3.346
236.84	3.342
238.36	3.329
239.87	3.324
241.39	3.32
242.9	3.32
244.42	3.32
245.94	3.32
247.45	3.32
248.97	3.324
250.48	3.337
252	3.342
253.52	3.346
255.03	3.35
256.55	3.35
258.06	3.346
259.58	3.342
260.93	3.329
262.44	3.316
263.62	3.29
264.8	3.265
265.83	3.238
266.82	3.213
267.88	3.188
268.84	3.157
269.68	3.123
270.53	3.089
271.37	3.055
271.92	3.025
272.71	2.986
273.39	2.952
273.89	2.918
274.57	2.883
275.12	2.849
275.75	2.811
276.25	2.776
277.01	2.74
277.6	2.708
278.27	2.674
278.95	2.639
279.45	2.605
280.13	2.571
280.8	2.537
281.47	2.502
282.1	2.47
282.82	2.434
283.57	2.403
284.34	2.37
285.04	2.34
285.85	2.305
286.69	2.275
287.54	2.241
288.23	2.21
289.05	2.177
289.91	2.147
290.74	2.117
291.41	2.083
