Uv/Vis Spectrum: 1-Phenylcyclohexane
Formula: C12H14
CAS: 771-98-2
Melting point: -11
Boiling point: 252
Instrument: Spectrophotometer SF-4
Origin: INSTITUTE OF ENERGY PROBLEMS OF CHEMICAL PHYSICS, RAS
Wavelength (nm)	Logarithm epsilon
225.254	2.15955
226.881	2.13284
228.124	2.11771
228.804	2.10663
229.113	2.10663
230.68	2.1154
232.126	2.12582
233.465	2.13775
234.709	2.15107
235.874	2.16562
236.971	2.18128
238.014	2.19789
239.018	2.21534
239.996	2.23348
240.96	2.25221
241.925	2.27142
242.905	2.291
243.911	2.31086
244.959	2.33093
246.062	2.35114
247.233	2.37142
247.233	2.37142
248.977	2.3788
250.207	2.3886
251.205	2.40125
252.251	2.41709
253.624	2.43632
253.624	2.43632
256.257	2.44706
257.787	2.45273
258.802	2.45542
259.89	2.4571
259.89	2.4571
260.23	2.4571
261.683	2.43512
262.306	2.41042
262.607	2.36847
262.607	2.36847
263.426	2.35342
263.963	2.3315
264.445	2.30459
265.1	2.2749
266.157	2.24535
266.774	2.2406
267.87	2.26633
268.53	2.29435
268.939	2.32284
269.278	2.35035
269.73	2.37576
270.478	2.39822
270.478	2.39822
270.911	2.39822
271.343	2.39822
271.775	2.39822
271.775	2.39822
272.411	2.37406
272.743	2.33906
272.908	2.29788
273.041	2.25699
273.667	2.2127
273.999	2.17739
274.337	2.13895
