Uv/Vis Spectrum: Phencylidine
Formula: C17H25N
CAS: 77-10-1
Melting point: 232-233
Instrument: Beckman DU
Origin: INSTITUTE OF ENERGY PROBLEMS OF CHEMICAL PHYSICS, RAS
Wavelength (nm)	Logarithm epsilon
204.72	3.912
205.9	3.929
207.42	3.936
208.77	3.946
210.12	3.936
211.47	3.919
212.48	3.899
213.32	3.875
214.17	3.848
215.01	3.824
215.85	3.797
216.8	3.763
217.7	3.724
218.55	3.681
218.89	3.661
219.22	3.64
219.56	3.623
219.9	3.606
220.24	3.582
220.57	3.562
220.91	3.542
221.26	3.512
221.58	3.477
221.92	3.436
222.26	3.399
222.46	3.357
222.66	3.299
222.75	3.216
222.81	3.173
222.87	3.125
222.9	3.089
222.99	3.055
223.02	3.015
223.11	2.979
223.14	2.946
223.23	2.906
223.32	2.867
223.37	2.818
223.46	2.764
223.58	2.706
223.66	2.626
223.83	2.523
224.11	2.382
224.45	2.294
224.79	2.185
225.13	2.073
225.46	2.012
225.8	1.951
226.14	1.869
226.48	1.822
226.81	1.771
227.15	1.699
227.49	1.655
227.74	1.612
228.16	1.546
228.5	1.505
228.84	1.465
229.17	1.434
229.51	1.414
229.81	1.401
230.28	1.389
230.91	1.385
231.57	1.389
232.2	1.398
232.78	1.409
233.33	1.421
233.75	1.435
234.16	1.451
234.53	1.468
234.86	1.486
235.24	1.509
235.61	1.532
236.19	1.568
236.64	1.595
236.92	1.613
237.26	1.634
237.6	1.651
237.91	1.665
238.28	1.679
238.62	1.696
238.95	1.716
239.29	1.733
239.63	1.747
239.95	1.76
240.3	1.771
240.64	1.788
240.98	1.805
241.32	1.822
241.65	1.835
241.99	1.852
242.33	1.869
242.66	1.883
243	1.896
243.34	1.906
243.68	1.923
244.01	1.937
244.31	1.949
244.69	1.957
245.03	1.971
245.36	1.988
245.7	2.002
246.04	2.012
246.36	2.025
246.71	2.036
247.05	2.053
247.39	2.059
247.72	2.073
248.06	2.087
248.4	2.1
248.74	2.107
249.07	2.117
249.41	2.124
249.75	2.141
250.08	2.155
250.34	2.163
250.76	2.175
251.1	2.192
251.43	2.206
251.77	2.219
252.11	2.226
252.45	2.229
252.78	2.233
253.12	2.233
253.46	2.233
253.79	2.229
254.13	2.229
254.47	2.236
254.81	2.243
255.14	2.253
255.48	2.28
255.82	2.297
256.16	2.328
256.49	2.345
256.83	2.365
257.17	2.376
257.5	2.379
257.84	2.382
258.18	2.382
258.52	2.382
258.85	2.379
259.19	2.365
259.53	2.355
259.87	2.345
260.33	2.338
260.87	2.341
261.21	2.352
261.55	2.372
261.89	2.396
262.23	2.416
262.56	2.437
262.9	2.45
263.24	2.45
263.58	2.447
263.91	2.43
264.25	2.41
264.59	2.379
264.92	2.352
265.26	2.321
265.6	2.28
265.94	2.25
266.27	2.226
266.61	2.202
266.95	2.192
267.45	2.185
267.97	2.191
268.3	2.202
268.48	2.218
268.63	2.236
268.81	2.263
268.97	2.287
269.16	2.309
269.33	2.323
269.57	2.333
269.81	2.33
269.98	2.308
270.08	2.281
270.18	2.254
270.36	2.212
270.6	2.153
270.99	2.042
271.4	1.934
271.73	1.846
272.04	1.74
272.34	1.652
272.68	1.522
273.02	1.403
273.36	1.325
273.69	1.213
274.03	1.159
274.37	1.104
274.7	1.012
275.04	0.961
