Uv/Vis Spectrum: Benzenethiol, pentafluoro-
Formula: C6HF5S
CAS: 771-62-0
Boiling point: 143
Instrument: Spectrophotometer SF-16
Origin: INSTITUTE OF ENERGY PROBLEMS OF CHEMICAL PHYSICS, RAS
Wavelength (nm)	Logarithm epsilon
210	3.72
211	3.73
212	3.74
213	3.76
214	3.77
215	3.79
216	3.81
217	3.83
218	3.85
219	3.87
220	3.89
221	3.91
222	3.93
223	3.94
224	3.95
225	3.96
226	3.97
227	3.97
228	3.97
229	3.97
230	3.97
231	3.96
232	3.95
233	3.91
234	3.89
235	3.85
236	3.8
237	3.77
238	3.75
239	3.72
240	3.7
241	3.69
242	3.67
243	3.66
244	3.65
245	3.64
246	3.64
247	3.63
248	3.63
249	3.63
250	3.62
251	3.62
252	3.61
253	3.61
254	3.6
255	3.59
256	3.58
257	3.57
258	3.56
259	3.55
260	3.54
261	3.53
262	3.51
263	3.5
264	3.49
265	3.47
266	3.45
267	3.43
268	3.41
269	3.4
270	3.37999
271	3.36
272	3.33
273	3.29
274	3.25
275	3.21
276	3.18
277	3.15
278	3.12
279	3.07
280	3.04001
281	2.98
282	2.95
283	2.91
284	2.89
285	2.87
286	2.84
287	2.82
288	2.8
289	2.77
290	2.75
291	2.73
292	2.71
293	2.69
294	2.66
295	2.64
296	2.62
297	2.6
298	2.58
299	2.56
300	2.54
301	2.52
302	2.5
303	2.48
304	2.46
305	2.44
306	2.42
307	2.4
308	2.39
309	2.37
310	2.35
311	2.33
312	2.3
313	2.27
314	2.24
315	2.21
316	2.18
317	2.16
318	2.12
319	2.08
