Uv/Vis Spectrum: 8-Quinolinol, 5,7-dichloro-
Formula: C9H5Cl2NO
CAS: 773-76-2
Melting point: 179-180
Instrument: Unicam SP 800
Origin: INSTITUTE OF ENERGY PROBLEMS OF CHEMICAL PHYSICS, RAS
Wavelength (nm)	Logarithm epsilon
201.36	4.271
202.21	4.294
203.05	4.321
204.24	4.338
205.77	4.345
207.3	4.338
208.65	4.325
210.01	4.308
211.2	4.291
212.22	4.267
213.23	4.243
213.91	4.216
214.76	4.192
215.61	4.169
216.63	4.148
217.48	4.125
218.32	4.101
219.34	4.077
220.19	4.053
221.21	4.033
222.23	4.013
223.24	3.989
224.43	3.969
225.45	3.948
226.47	3.928
227.66	3.908
229.01	3.891
230.37	3.877
231.9	3.87
233.25	3.88
234.61	3.897
235.8	3.918
236.82	3.938
237.67	3.962
238.51	3.986
239.36	4.013
240.21	4.036
241.06	4.064
241.91	4.091
242.59	4.118
243.1	4.145
243.94	4.172
244.45	4.199
245.13	4.226
245.98	4.254
246.83	4.281
247.51	4.308
248.53	4.332
249.54	4.352
250.73	4.369
252.26	4.376
253.78	4.379
255.14	4.362
256.5	4.345
258.03	4.342
259.38	4.359
260.74	4.376
262.1	4.393
263.46	4.41
264.81	4.42
266.34	4.42
267.87	4.41
269.05	4.389
269.9	4.362
270.58	4.335
271.09	4.304
271.43	4.274
271.77	4.243
272.11	4.213
272.45	4.182
272.62	4.152
272.96	4.121
273.13	4.091
273.3	4.06
273.47	4.03
273.64	3.999
273.98	3.969
274.15	3.938
274.31	3.908
274.48	3.877
274.65	3.846
274.82	3.816
275.16	3.785
275.33	3.755
275.67	3.724
276.01	3.694
276.18	3.663
276.52	3.633
276.86	3.602
277.2	3.572
277.54	3.541
278.05	3.511
278.39	3.48
278.73	3.449
279.24	3.419
279.57	3.388
280.08	3.361
280.59	3.334
281.1	3.304
281.61	3.276
282.29	3.249
283.14	3.222
284.16	3.198
285	3.175
286.19	3.154
287.55	3.144
289.08	3.137
290.6	3.137
291.96	3.147
293.49	3.154
294.84	3.168
296.2	3.181
297.56	3.195
298.92	3.205
300.27	3.219
301.63	3.232
302.99	3.243
304.35	3.253
305.7	3.263
307.23	3.27
308.59	3.28
310.11	3.287
311.47	3.3
313	3.307
314.53	3.314
315.88	3.327
317.41	3.331
318.94	3.331
320.46	3.334
321.99	3.334
323.52	3.334
325.05	3.334
326.57	3.331
328.1	3.331
329.63	3.321
331.15	3.317
332.68	3.314
334.21	3.314
335.73	3.314
337.26	3.314
338.79	3.317
340.32	3.317
341.84	3.317
343.37	3.317
344.9	3.314
346.42	3.31
347.95	3.304
349.48	3.3
351	3.293
352.53	3.283
353.89	3.27
355.25	3.259
356.77	3.249
358.13	3.236
359.66	3.232
361.02	3.219
362.54	3.215
364.07	3.205
365.6	3.198
367.12	3.188
368.65	3.185
370.18	3.185
371.7	3.181
373.23	3.175
374.76	3.171
376.29	3.168
377.81	3.168
379.34	3.168
380.87	3.161
382.39	3.154
383.92	3.151
385.45	3.147
386.97	3.137
388.5	3.134
390.03	3.124
391.56	3.117
392.91	3.103
394.44	3.093
395.97	3.086
397.32	3.073
398.68	3.056
400.04	3.039
401.4	3.022
402.75	3.005
404.11	2.988
405.47	2.971
406.66	2.954
408.01	2.937
409.2	2.92
410.39	2.903
411.75	2.886
412.93	2.869
414.12	2.852
415.14	2.832
416.33	2.815
417.51	2.795
418.7	2.778
419.55	2.754
420.57	2.734
421.59	2.713
422.44	2.689
423.45	2.666
424.47	2.645
425.32	2.618
426.34	2.598
427.19	2.574
428.2	2.55
429.22	2.53
430.24	2.506
431.43	2.486
432.45	2.466
433.46	2.445
434.48	2.421
435.67	2.401
436.69	2.377
437.71	2.354
438.72	2.33
439.57	2.306
440.42	2.282
441.27	2.255
441.95	2.228
442.96	2.204
443.81	2.177
444.83	2.157
445.85	2.136
446.7	2.113
447.72	2.092
448.73	2.072
449.75	2.048
450.77	2.024
451.79	2.004
452.64	1.98
453.65	1.957
454.67	1.936
455.52	1.909
456.54	1.889
457.39	1.862
458.4	1.838
459.25	1.811
460.1	1.787
460.95	1.76
461.8	1.736
462.65	1.709
463.49	1.685
464.34	1.658
465.36	1.638
466.38	1.617
467.23	1.594
468.42	1.573
469.77	1.556
470.96	1.536
472.32	1.519
473.51	1.502
474.86	1.485
476.22	1.471
477.41	1.454
478.6	1.434
479.78	1.414
480.8	1.393
481.99	1.373
483.35	1.356
484.7	1.339
486.06	1.329
487.42	1.319
488.78	1.305
490.3	1.298
491.83	1.288
493.36	1.285
494.88	1.281
496.41	1.275
497.94	1.268
499.46	1.261
500.99	1.251
502.35	1.241
503.88	1.231
505.23	1.217
506.59	1.203
507.95	1.19
509.31	1.18
510.66	1.163
512.02	1.146
513.38	1.129
514.73	1.115
516.09	1.098
517.28	1.081
518.64	1.064
519.82	1.047
521.01	1.03
522.37	1.013
523.56	0.993
524.91	0.976
526.27	0.959
527.46	0.942
528.65	0.922
529.84	0.905
531.02	0.884
532.21	0.864
533.23	0.844
534.42	0.827
535.6	0.806
536.79	0.786
537.98	0.766
539.17	0.745
