Uv/Vis Spectrum: 2-diazo-1(2H)-naphthalenone
Formula: C10H6N2O
CAS: 773-90-0
Melting point: 96-98
Instrument: Sf-4
Origin: INSTITUTE OF ENERGY PROBLEMS OF CHEMICAL PHYSICS, RAS
Wavelength (nm)	Logarithm epsilon
236.783	4.222
238.283	4.236
239.783	4.251
241.283	4.266
242.783	4.277
244.283	4.282
245.783	4.274
247.283	4.25
248.783	4.208
250.283	4.147
250.309	4.146
251.809	4.091
253.309	4.028
254.809	3.958
256.309	3.887
257.809	3.818
259.309	3.754
260.809	3.699
262.309	3.655
263.809	3.624
265.309	3.608
266.809	3.608
268.309	3.621
269.809	3.648
269.896	3.645
271.396	3.699
272.896	3.751
274.396	3.795
275.896	3.828
277.396	3.849
278.896	3.859
280.396	3.86
281.896	3.853
283.396	3.836
284.896	3.807
286.396	3.759
287.896	3.681
288.871	3.608
290.095	3.539
291.289	3.477
292.789	3.43
294.289	3.389
295.789	3.357
297.289	3.335
298.789	3.324
300.289	3.322
301.789	3.329
303.289	3.342
304.789	3.361
306.289	3.386
308.152	3.428
309.652	3.462
311.152	3.494
312.652	3.524
314.152	3.55
315.652	3.574
317.152	3.595
318.652	3.613
320.152	3.629
321.652	3.642
323.152	3.653
324.652	3.662
326.152	3.669
327.652	3.674
329.152	3.677
330.652	3.678
332.152	3.678
333.652	3.675
335.152	3.671
336.652	3.666
338.152	3.658
339.652	3.649
341.152	3.637
343.041	3.622
344.541	3.614
346.041	3.605
347.541	3.596
349.041	3.587
350.541	3.581
352.041	3.577
353.541	3.577
355.041	3.58
356.541	3.586
358.041	3.595
359.541	3.606
361.129	3.618
362.629	3.632
364.129	3.648
365.629	3.664
367.129	3.68
368.629	3.696
370.129	3.712
371.629	3.726
373.129	3.74
374.629	3.753
376.129	3.764
377.629	3.774
379.129	3.782
380.629	3.789
382.129	3.794
383.629	3.798
385.129	3.8
386.629	3.801
388.129	3.8
389.629	3.798
391.129	3.794
392.629	3.789
394.129	3.781
395.629	3.772
397.129	3.761
398.629	3.747
400.129	3.731
401.629	3.711
403.129	3.688
404.629	3.66
406.129	3.628
407.801	3.592
409.301	3.543
410.801	3.49
412.301	3.431
413.801	3.369
415.301	3.301
416.801	3.229
418.301	3.152
419.801	3.07
421.301	2.983
422.801	2.892
424.301	2.796
425.801	2.696
427.301	2.591
428.226	2.552
