Uv/Vis Spectrum: Silane, diphenyl-
Formula: C12H12Si
CAS: 775-12-2
Boiling point: 126-128/ 9 mm
Instrument: Spektromom 201
Origin: INSTITUTE OF ENERGY PROBLEMS OF CHEMICAL PHYSICS, RAS
Wavelength (nm)	Logarithm epsilon
216.37	4.117
216.54	4.121
216.7	4.124
216.87	4.124
217.04	4.127
217.21	4.131
217.37	4.136
217.54	4.141
217.73	4.146
217.88	4.152
218.13	4.158
218.56	4.172
219.3	4.185
219.89	4.192
221.26	4.199
221.97	4.195
222.75	4.189
223.62	4.179
224.13	4.172
224.63	4.161
225.14	4.151
225.7	4.131
226.15	4.104
226.66	4.056
227.17	4.005
227.67	3.957
228.18	3.909
228.68	3.855
229.19	3.79
229.7	3.732
230.08	3.69
230.53	3.642
231.02	3.601
231.52	3.546
232.11	3.486
232.6	3.439
233.24	3.371
233.75	3.313
234.25	3.248
234.76	3.187
235.26	3.129
235.77	3.078
236.28	3.02
236.78	2.972
237.29	2.924
237.8	2.89
238.3	2.863
238.81	2.846
239.31	2.836
239.82	2.822
240.33	2.822
240.83	2.818
241.34	2.818
241.84	2.822
242.35	2.825
242.86	2.836
243.36	2.839
243.87	2.853
244.38	2.873
244.88	2.89
245.39	2.893
245.89	2.89
246.4	2.88
246.91	2.87
247.41	2.863
248.11	2.868
248.43	2.876
248.93	2.887
249.44	2.9
249.94	2.917
250.45	2.928
250.96	2.921
251.46	2.911
251.96	2.91
252.47	2.914
252.98	2.921
253.47	2.932
253.97	2.941
254.5	2.948
255.01	2.955
255.51	2.955
256.02	2.951
256.52	2.941
257.03	2.924
257.54	2.917
258.04	2.911
258.55	2.914
259.06	2.938
259.56	2.951
260.07	2.962
260.51	2.972
261.01	2.978
261.59	2.986
262.09	2.989
262.6	2.986
262.94	2.978
263.1	2.968
263.19	2.957
263.27	2.944
263.44	2.932
263.61	2.921
264.12	2.911
264.62	2.907
265.13	2.911
265.45	2.921
265.64	2.934
265.87	2.948
266.14	2.958
266.65	2.965
267.15	2.968
267.66	2.962
267.96	2.945
268.3	2.928
268.67	2.911
269.18	2.89
269.69	2.866
270.19	2.842
270.7	2.825
271.23	2.822
271.71	2.825
272.22	2.842
272.63	2.857
272.99	2.865
273.23	2.865
273.41	2.855
273.61	2.824
273.8	2.79
274.07	2.736
274.44	2.673
274.89	2.598
275.21	2.545
275.65	2.477
276.27	2.375
276.75	2.312
277.3	2.256
277.74	2.215
278.29	2.178
278.8	2.13
279.3	2.082
279.81	2.045
280.31	2.011
280.82	1.977
281.33	1.946
281.83	1.925
282.34	1.895
282.85	1.871
283.35	1.844
283.86	1.823
284.36	1.803
284.87	1.779
285.38	1.755
285.88	1.738
286.39	1.721
286.9	1.704
287.4	1.687
287.91	1.67
288.41	1.653
288.92	1.643
289.43	1.632
289.93	1.619
290.44	1.615
290.94	1.602
291.45	1.588
291.96	1.581
292.46	1.571
292.97	1.564
293.48	1.554
293.98	1.55
294.49	1.537
294.99	1.533
295.5	1.527
296.01	1.52
296.51	1.516
297.02	1.513
297.53	1.503
298.03	1.503
298.54	1.493
299.04	1.475
299.55	1.472
300.06	1.469
300.56	1.465
301.07	1.458
301.57	1.455
302.08	1.455
302.59	1.448
303.09	1.441
303.6	1.438
304.11	1.438
304.61	1.435
305.12	1.431
305.62	1.424
306.13	1.421
306.64	1.421
307.14	1.414
307.65	1.411
308.16	1.404
308.66	1.404
309.17	1.4
309.67	1.4
310.18	1.397
310.69	1.394
311.19	1.39
311.7	1.387
312.2	1.387
312.71	1.383
313.22	1.383
313.72	1.383
314.23	1.38
314.74	1.377
315.24	1.373
315.75	1.37
316.25	1.37
316.76	1.37
317.27	1.366
317.77	1.366
318.28	1.366
318.79	1.363
319.29	1.363
319.8	1.356
320.3	1.356
320.81	1.353
321.32	1.353
321.82	1.353
322.33	1.353
322.83	1.349
323.34	1.349
323.85	1.349
324.35	1.346
324.86	1.339
325.37	1.339
325.87	1.336
326.38	1.336
326.88	1.336
327.39	1.336
327.9	1.336
328.4	1.336
328.91	1.332
329.42	1.332
329.92	1.332
330.43	1.332
330.93	1.332
331.44	1.329
331.95	1.326
332.45	1.322
332.96	1.322
333.46	1.322
333.97	1.322
334.48	1.322
334.98	1.322
335.49	1.319
336	1.319
336.5	1.319
337.01	1.319
337.51	1.319
338.02	1.315
338.53	1.315
339.03	1.315
339.54	1.315
