Uv/Vis Spectrum: 3,4-Dimethoxyphenylacetone
Formula: C11H14O3
CAS: 776-99-8
Boiling point: 118/ 0.4 mm
Instrument: Spektromom 201
Origin: INSTITUTE OF ENERGY PROBLEMS OF CHEMICAL PHYSICS, RAS
Wavelength (nm)	Logarithm epsilon
204.89	4.366
206.24	4.379
207.58	4.362
208.26	4.335
209.1	4.311
209.77	4.284
210.62	4.257
211.29	4.23
211.8	4.203
212.47	4.176
213.14	4.148
213.65	4.121
214.32	4.094
215	4.067
215.5	4.04
216.18	4.013
216.85	3.986
217.36	3.959
218.37	3.935
219.38	3.911
220.56	3.891
221.91	3.874
223.26	3.86
224.77	3.853
226.29	3.843
227.81	3.84
229.32	3.843
230.84	3.847
232.36	3.836
233.7	3.823
235.05	3.806
236.23	3.785
237.07	3.762
237.92	3.738
238.59	3.711
239.27	3.684
239.94	3.657
240.95	3.633
241.79	3.609
242.64	3.585
243.31	3.558
243.98	3.531
244.49	3.504
244.99	3.477
245.67	3.45
246.17	3.422
246.68	3.395
247.19	3.368
247.69	3.341
248.2	3.314
248.7	3.287
249.38	3.26
249.88	3.233
250.56	3.205
251.23	3.178
251.99	3.151
252.75	3.127
253.59	3.1
254.43	3.073
255.27	3.046
256.45	3.02
257.8	3.009
259.32	3.015
260.5	3.036
261.68	3.056
262.69	3.08
263.53	3.104
264.37	3.127
265.22	3.154
265.89	3.182
266.73	3.209
267.41	3.236
268.42	3.26
269.09	3.287
270.1	3.311
270.95	3.334
271.79	3.361
272.8	3.382
273.64	3.406
274.65	3.429
275.83	3.446
277.01	3.463
278.36	3.48
279.88	3.484
281.4	3.484
282.91	3.48
284.09	3.463
285.27	3.446
286.45	3.426
287.46	3.406
288.3	3.378
289.15	3.355
289.82	3.328
290.33	3.3
290.86	3.274
291.34	3.243
291.84	3.216
292.35	3.188
292.85	3.161
293.36	3.131
293.75	3.104
294.2	3.07
294.57	3.042
295.05	3.012
295.55	2.981
296.06	2.951
296.56	2.924
297.07	2.893
297.45	2.862
297.91	2.832
298.42	2.805
298.97	2.778
299.6	2.747
300.27	2.72
300.94	2.693
301.79	2.666
302.8	2.646
303.81	2.622
304.58	2.6
305.33	2.571
306.06	2.547
306.84	2.52
307.52	2.493
308.19	2.466
308.86	2.439
309.54	2.412
310.21	2.384
310.72	2.354
311.22	2.327
311.73	2.3
312.23	2.272
312.91	2.245
313.41	2.218
313.92	2.191
314.22	2.164
314.76	2.133
315.27	2.106
315.77	2.079
316.28	2.052
316.78	2.025
317.29	1.998
317.8	1.971
318.3	1.943
318.7	1.918
319.14	1.886
319.65	1.859
320.16	1.831
320.66	1.804
321.17	1.777
321.67	1.75
322.18	1.723
322.51	1.692
323.19	1.665
323.69	1.638
324.2	1.611
324.71	1.584
325.21	1.557
325.94	1.519
326.37	1.496
326.88	1.469
327.4	1.445
327.91	1.418
328.41	1.39
328.92	1.363
329.59	1.336
330.1	1.309
330.77	1.282
331.28	1.255
331.78	1.228
332.46	1.2
332.96	1.173
333.64	1.146
334.31	1.119
334.82	1.092
335.66	1.065
336.16	1.038
336.67	1.01
337.34	0.983
337.85	0.956
