Uv/Vis Spectrum: 1-Naphthalenamine, 4-nitro-
Formula: C10H8N2O2
CAS: 776-34-1
Melting point: 195
Instrument: unknown
Origin: INSTITUTE OF ENERGY PROBLEMS OF CHEMICAL PHYSICS, RAS
Wavelength (nm)	Logarithm epsilon
234.74	3.891
235.08	3.895
235.42	3.897
235.76	3.901
236.1	3.905
236.43	3.908
236.77	3.914
237.79	3.938
239.82	3.986
240.84	4.001
241.85	4.018
242.87	4.034
243.88	4.038
244.9	4.042
245.91	4.043
246.93	4.043
247.95	4.043
248.96	4.041
249.98	4.039
250.99	4.039
252.01	4.043
253.03	4.046
254.04	4.051
255.06	4.062
256.07	4.066
257.09	4.068
258.11	4.069
259.12	4.068
260.14	4.068
262.17	4.063
263.18	4.055
264.2	4.047
265.22	4.046
266.23	4.031
267.25	4.02
268.26	4.008
269.28	3.995
270.3	3.979
271.31	3.978
272.33	3.945
273.34	3.937
274.36	3.908
275.37	3.895
276.39	3.849
277.41	3.841
278.42	3.79
279.44	3.773
280.45	3.717
281.47	3.696
282.49	3.662
283.5	3.624
284.52	3.603
285.53	3.555
286.55	3.525
287.56	3.502
288.58	3.493
289.6	3.453
290.61	3.431
291.63	3.403
292.64	3.385
293.66	3.372
295.69	3.318
296.71	3.304
297.72	3.289
298.74	3.273
299.76	3.257
300.77	3.248
303.82	3.204
304.83	3.204
305.85	3.195
306.87	3.195
307.88	3.195
308.9	3.195
312.96	3.223
313.98	3.231
314.99	3.248
316.01	3.265
317.02	3.273
318.04	3.289
319.06	3.304
322.1	3.339
323.12	3.346
324.14	3.346
325.15	3.346
326.17	3.346
327.18	3.353
328.2	3.359
329.21	3.372
332.26	3.403
333.28	3.409
334.29	3.414
335.31	3.42
336.33	3.42
337.34	3.42
338.36	3.414
339.37	3.414
340.39	3.414
343.44	3.42
344.45	3.426
345.47	3.431
346.48	3.448
347.5	3.448
350.55	3.483
351.56	3.493
352.58	3.507
353.6	3.525
354.61	3.543
356.64	3.584
357.66	3.591
358.67	3.614
359.69	3.624
360.71	3.642
361.72	3.678
362.74	3.675
363.75	3.714
364.77	3.717
365.79	3.742
366.8	3.744
367.82	3.76
368.83	3.773
370.86	3.809
371.88	3.816
372.9	3.83
373.91	3.845
374.93	3.868
375.94	3.874
376.96	3.887
377.98	3.901
378.99	3.923
380.01	3.926
381.02	3.938
382.04	3.95
383.05	3.968
384.07	3.976
385.09	3.987
387.12	4.015
388.13	4.018
389.15	4.028
391.18	4.054
392.2	4.055
393.21	4.062
394.23	4.071
397.28	4.092
398.29	4.095
399.31	4.103
400.32	4.111
401.34	4.113
403.37	4.121
404.39	4.123
405.4	4.125
406.42	4.125
407.44	4.125
408.45	4.123
409.47	4.121
411.5	4.113
412.51	4.108
413.53	4.106
414.55	4.101
417.59	4.091
418.61	4.085
419.63	4.078
420.64	4.069
421.66	4.062
422.67	4.054
423.69	4.041
424.7	4.025
425.72	4.018
426.74	3.993
427.75	3.982
428.77	3.962
429.78	3.945
430.8	3.91
431.82	3.901
432.83	3.859
433.85	3.849
434.86	3.8
435.88	3.788
436.89	3.736
437.91	3.722
438.93	3.671
439.94	3.638
440.96	3.591
441.97	3.547
442.99	3.538
444.01	3.478
445.02	3.431
446.04	3.403
447.05	3.333
448.07	3.281
449.09	3.257
450.1	3.165
