Uv/Vis Spectrum: <alpha>,<alpha>,<alpha>,2,3,5,6-Heptafluoro-p-xylene
Formula: C8H3F7
CAS: 778-35-8
Boiling point: 143-145
Instrument: SF -16
Origin: INSTITUTE OF ENERGY PROBLEMS OF CHEMICAL PHYSICS, RAS
Wavelength (nm)	Logarithm epsilon
208.48	3.842
209.01	3.842
209.54	3.842
210.07	3.842
210.6	3.837
211.13	3.837
211.66	3.837
212.19	3.837
212.72	3.837
213.25	3.837
213.78	3.816
214.31	3.801
214.84	3.785
215.38	3.765
215.91	3.749
216.44	3.739
216.97	3.729
217.5	3.718
218.03	3.693
218.56	3.662
219.09	3.636
219.62	3.585
220.15	3.471
220.68	3.42
221.21	3.369
221.74	3.312
222.27	3.261
222.8	3.199
223.33	3.153
223.86	3.086
224.39	3.029
224.92	2.751
225.45	2.638
225.98	2.561
226.51	2.499
227.04	2.438
227.57	2.376
228.1	2.319
228.63	2.263
229.16	2.227
229.69	2.206
230.22	2.181
230.75	2.145
231.28	2.119
231.81	2.093
232.34	2.093
232.87	2.083
233.4	2.078
233.93	2.073
234.46	2.073
234.99	2.067
235.52	2.073
236.05	2.083
236.58	2.093
239.76	2.17
240.29	2.191
240.82	2.217
241.35	2.247
241.88	2.263
242.41	2.289
242.94	2.319
243.47	2.34
244	2.366
244.53	2.386
245.06	2.412
245.59	2.438
246.12	2.458
246.66	2.484
247.19	2.51
247.72	2.535
248.25	2.561
248.78	2.587
249.31	2.613
249.84	2.643
250.37	2.664
250.9	2.69
251.43	2.71
251.96	2.736
252.49	2.767
253.02	2.782
253.55	2.808
254.08	2.829
254.61	2.854
255.14	2.87
256.2	2.906
256.73	2.921
258.32	2.957
258.85	2.978
259.38	2.993
259.91	3.019
260.44	3.039
260.97	3.055
261.5	3.075
262.03	3.096
262.56	3.117
263.09	3.127
263.62	3.147
264.15	3.168
264.68	3.183
265.21	3.199
265.74	3.209
266.27	3.219
266.8	3.23
267.33	3.245
268.39	3.255
268.92	3.266
269.45	3.266
269.98	3.271
270.51	3.271
271.04	3.276
271.57	3.276
272.1	3.281
272.63	3.281
273.16	3.281
273.69	3.276
274.22	3.276
274.75	3.271
275.28	3.271
275.81	3.266
276.34	3.255
276.88	3.245
277.41	3.225
277.94	3.204
278.47	3.163
279	3.106
279.53	2.952
280.06	2.901
280.59	2.854
281.12	2.813
281.65	2.736
282.18	2.674
282.71	2.628
283.24	2.582
283.77	2.535
284.3	2.489
284.83	2.448
285.36	2.391
285.89	2.294
286.42	2.227
286.95	2.191
287.48	2.16
288.01	2.119
288.54	2.031
289.07	2.001
