Uv/Vis Spectrum: Anthracene, 9-methyl-
Formula: C15H12
CAS: 779-02-2
Melting point: 81.5
Boiling point: 196-7(12)
Instrument: n.i.g.
Origin: INSTITUTE OF ENERGY PROBLEMS OF CHEMICAL PHYSICS, RAS
Wavelength (nm)	Logarithm epsilon
230.445	4.34839
232.165	4.39707
233.717	4.44509
235.112	4.49272
236.362	4.54023
237.476	4.5879
238.465	4.63599
239.34	4.6848
240.111	4.73458
240.111	4.73458
240.551	4.78454
240.993	4.83444
241.437	4.88428
241.886	4.93408
242.341	4.98384
242.802	5.0336
242.802	5.0336
243.306	5.03802
243.972	5.0397
245.373	5.04007
245.373	5.04007
246.155	5.03083
246.937	5.02159
247.72	5.01235
249.459	5.02547
249.766	5.07229
250.074	5.11906
250.383	5.16578
250.696	5.21246
251.012	5.25912
251.333	5.30577
251.659	5.3524
251.659	5.3524
252.016	5.35552
252.374	5.35853
252.732	5.36131
252.732	5.36131
253.006	5.36015
253.304	5.35876
253.612	5.35726
253.612	5.35726
253.714	5.35055
253.806	5.34317
253.895	5.33326
253.988	5.31898
254.095	5.29849
254.221	5.26994
254.376	5.2315
254.566	5.18131
254.8	5.11753
255.086	5.03833
255.43	4.94185
255.842	4.82625
255.842	4.82625
256.745	4.78237
257.469	4.73886
258.034	4.69556
258.461	4.65236
258.771	4.6091
258.984	4.56566
259.12	4.5219
259.201	4.47768
259.246	4.43287
259.277	4.38733
259.314	4.34093
259.314	4.34093
259.528	4.2968
259.735	4.25032
259.933	4.20188
260.125	4.15183
260.309	4.10055
260.487	4.04842
260.658	3.99581
260.822	3.94308
260.981	3.89062
261.134	3.83879
261.282	3.78796
261.424	3.7385
261.561	3.6908
261.694	3.64521
261.822	3.60212
261.946	3.56189
262.067	3.5249
262.183	3.49152
262.297	3.46212
262.407	3.43707
262.515	3.41674
262.62	3.40151
262.62	3.40151
263.281	3.39339
264.018	3.37722
265.465	3.33915
265.465	3.33915
266.048	3.26468
266.517	3.20518
266.906	3.15715
267.244	3.1171
267.564	3.08152
267.897	3.04691
268.275	3.00977
268.729	2.96661
269.29	2.91393
269.29	2.91393
270.269	2.86894
271.353	2.82459
272.567	2.78079
273.936	2.73745
275.483	2.69446
277.233	2.65173
279.21	2.60917
281.437	2.56669
281.437	2.56669
284.008	2.53624
286.602	2.50557
289.208	2.47479
289.208	2.47479
291.189	2.47696
292.082	2.4788
292.654	2.48186
292.654	2.48186
294.453	2.52865
296.154	2.58197
297.817	2.62839
297.817	2.62839
298.636	2.63176
300.305	2.63313
304.253	2.6337
304.253	2.6337
304.804	2.64965
305.356	2.66538
305.907	2.68098
305.907	2.68098
306.188	2.72513
306.469	2.76926
306.749	2.8134
307.03	2.85752
307.311	2.90163
307.592	2.94572
307.873	2.9898
308.153	3.03386
308.434	3.07789
308.715	3.12189
308.715	3.12189
309.444	3.13337
309.505	3.15666
309.505	3.15666
309.567	3.14456
312.558	3.17083
315.792	3.16465
319.352	3.15299
319.352	3.15299
319.708	3.1582
320.063	3.16341
320.419	3.16863
320.419	3.16863
321.32	3.21687
322.226	3.26511
323.135	3.31333
324.047	3.36154
324.962	3.40972
325.878	3.45787
326.796	3.50599
327.714	3.55406
327.714	3.55406
328.126	3.55654
328.55	3.55879
328.996	3.56092
328.996	3.56092
331.652	3.53108
334.459	3.47698
336.649	3.43225
336.649	3.43225
337.128	3.4323
337.63	3.43235
338.143	3.4324
338.143	3.4324
339.323	3.46524
340.303	3.50865
341.075	3.55889
341.414	3.77031
341.419	3.76615
341.423	3.76188
341.427	3.75737
341.629	3.61221
341.895	3.75327
341.895	3.75327
341.956	3.66488
342.048	3.71315
342.155	3.7533
342.426	3.75333
342.72	3.75336
342.72	3.75336
342.962	3.79574
343.953	3.83383
346.901	3.8506
346.901	3.8506
348.274	3.81915
349.658	3.78771
351.066	3.75627
351.066	3.75627
351.764	3.707
352.468	3.64172
353.171	3.57838
353.863	3.53494
353.863	3.53494
354.278	3.53445
354.704	3.53384
355.154	3.533
355.154	3.533
356.28	3.58381
356.958	3.63501
357.346	3.68622
357.604	3.73701
357.89	3.78698
357.89	3.78698
359.976	3.83658
361.43	3.88198
362.384	3.92568
362.972	3.97021
363.328	4.01808
363.585	4.07181
363.585	4.07181
363.916	4.09002
364.188	4.09891
364.633	4.10609
364.633	4.10609
365.047	4.10613
365.473	4.10617
365.921	4.10622
365.921	4.10622
367.346	4.05719
368.218	4.00587
368.791	3.95317
369.322	3.89997
369.322	3.89997
369.814	3.78164
370.232	3.68142
370.582	3.59779
370.874	3.52916
371.113	3.474
371.308	3.43074
371.466	3.39783
371.594	3.37372
371.7	3.35685
371.792	3.34567
371.876	3.33862
371.961	3.33415
372.053	3.3307
372.053	3.3307
372.702	3.32946
373.142	3.33004
373.752	3.33294
373.752	3.33294
374.74	3.37674
375.64	3.4204
376.467	3.46395
377.235	3.50741
377.961	3.5508
378.66	3.59415
379.347	3.63749
380.039	3.68083
380.75	3.72422
381.497	3.76766
382.295	3.81118
382.295	3.81118
383.013	3.87298
383.599	3.93477
384.073	3.99232
384.452	4.0414
384.754	4.07779
384.999	4.09726
384.999	4.09726
385.413	4.0973
385.839	4.09735
386.287	4.09739
386.287	4.09739
386.726	4.07256
387.177	4.04762
387.65	4.02245
387.65	4.02245
387.772	4.00257
387.89	3.98342
388.003	3.96489
388.112	3.94687
388.219	3.92927
388.322	3.91199
388.424	3.89491
388.524	3.87795
388.623	3.86098
388.72	3.84392
388.818	3.82665
388.916	3.80909
389.015	3.79111
389.115	3.77262
389.216	3.75352
389.32	3.7337
389.426	3.71306
389.536	3.69151
389.649	3.66892
389.767	3.64521
389.889	3.62027
390.016	3.59399
390.148	3.56627
390.287	3.53702
390.432	3.50612
390.584	3.47348
390.744	3.43899
390.911	3.40254
391.087	3.36404
391.273	3.32339
391.467	3.28047
391.671	3.23519
391.886	3.18745
392.112	3.13713
392.349	3.08415
392.598	3.02838
392.859	2.96974
393.133	2.90812
393.318	3.0403
393.368	3.04339
393.421	2.84342
393.43	3.04637
393.515	3.04912
393.722	2.77553
394.037	2.70434
394.368	2.62977
394.713	2.5517
395.074	2.47003
395.451	2.38466
395.845	2.29549
396.257	2.2024
396.685	2.10531
