Uv/Vis Spectrum: 1,2,3-Propanetricarboxylic acid, 2-hydroxy-
Formula: C6H8O7
CAS: 77-92-9
Melting point: 153
Instrument: Zeiss PMQ II
Origin: INSTITUTE OF ENERGY PROBLEMS OF CHEMICAL PHYSICS, RAS
Wavelength (nm)	Logarithm epsilon
184.27	3.095
184.34	3.09
184.41	3.086
184.48	3.082
184.56	3.078
184.63	3.076
184.7	3.071
184.78	3.067
184.85	3.063
184.92	3.058
185.22	3.007
185.59	2.973
185.96	2.941
186.33	2.915
186.7	2.883
187.08	2.851
187.46	2.819
187.84	2.787
188.21	2.752
188.6	2.72
188.98	2.688
189.36	2.656
189.75	2.626
190.14	2.598
190.53	2.571
190.92	2.545
191.31	2.521
191.7	2.5
192.1	2.479
192.5	2.459
192.9	2.444
193.3	2.427
193.7	2.412
194.1	2.402
194.51	2.391
194.91	2.38
195.32	2.37
195.73	2.361
196.15	2.357
196.56	2.35
196.98	2.346
197.39	2.342
197.81	2.337
198.24	2.335
198.66	2.333
199.08	2.331
199.51	2.329
199.94	2.327
200.37	2.327
200.8	2.327
201.24	2.327
201.67	2.329
202.11	2.333
202.55	2.335
202.99	2.337
203.43	2.34
203.88	2.344
204.33	2.346
204.78	2.348
205.23	2.35
205.68	2.355
206.14	2.357
206.59	2.357
207.05	2.357
207.52	2.357
207.98	2.355
208.45	2.35
208.91	2.348
209.38	2.348
209.85	2.344
210.33	2.337
210.81	2.333
211.28	2.327
211.76	2.322
212.25	2.316
212.73	2.312
213.22	2.305
213.71	2.301
214.2	2.292
214.7	2.284
215.19	2.28
215.69	2.269
216.19	2.26
216.69	2.25
217.2	2.237
217.71	2.222
218.22	2.209
218.73	2.196
219.25	2.179
219.76	2.166
220.28	2.151
220.81	2.134
221.33	2.119
221.86	2.102
222.39	2.083
222.92	2.059
223.46	2.038
223.99	2.017
224.53	1.997
225.08	1.978
225.62	1.957
226.17	1.933
226.72	1.907
227.28	1.884
227.83	1.856
228.39	1.833
228.95	1.803
229.52	1.773
230.08	1.741
230.65	1.708
231.23	1.676
231.8	1.638
232.38	1.604
232.96	1.567
233.55	1.539
234.14	1.527
234.73	1.49
235.32	1.45
235.92	1.407
236.52	1.364
237.12	1.323
237.72	1.281
238.33	1.231
238.94	1.191
239.56	1.142
240.18	1.088
240.8	1.026
241.42	0.955
242.05	0.898
242.68	0.84
243.32	0.78
243.95	0.718
244.59	0.664
245.24	0.607
245.89	0.545
246.54	0.485
247.19	0.41
247.85	0.337
248.51	0.264
249.18	0.196
249.85	0.134
250.52	0.065
251.19	-0.009
251.87	-0.099
252.56	-0.178
253.24	-0.264
253.94	-0.339
254.63	-0.405
255.33	-0.495
256.03	-0.579
256.74	-0.666
257.45	-0.745
258.16	-0.848
258.88	-0.889
259.6	-0.929
260.33	-0.961
