Uv/Vis Spectrum: Aniline, N-benzylidene-p-chloro-,
Formula: C13H10ClN
CAS: 780-21-2
Instrument: Cary 14M
Origin: INSTITUTE OF ENERGY PROBLEMS OF CHEMICAL PHYSICS, RAS
Wavelength (nm)	Logarithm epsilon
212.035	4.28475
212.313	4.28255
212.6	4.28033
212.892	4.27811
213.547	4.27125
214.504	4.26153
215.149	4.25441
215.737	4.24912
216.618	4.24078
217.119	4.2343
217.706	4.22761
218.169	4.22028
218.819	4.21364
218.926	4.21201
219.033	4.21034
219.14	4.20863
219.918	4.20002
219.987	4.19774
220.06	4.1954
220.143	4.19301
221.017	4.18596
221.153	4.18317
221.298	4.18034
221.448	4.17744
221.896	4.17008
221.99	4.16784
222.13	4.16672
222.436	4.16578
222.436	4.16578
222.695	4.16054
222.954	4.15521
223.213	4.14976
223.887	4.14065
224.25	4.13445
224.617	4.12814
224.993	4.12167
226.072	4.10464
226.254	4.09912
226.445	4.09347
226.641	4.08772
227.856	4.07171
228.069	4.0679
228.286	4.06398
228.512	4.06
229.602	4.04451
229.818	4.03903
230.038	4.03345
230.268	4.02772
230.719	4.01541
230.933	4.01072
231.15	4.0059
231.377	4.00099
232.873	3.99388
232.877	3.99134
232.882	3.98879
232.887	3.98622
232.887	3.98622
233.197	3.98406
233.51	3.98189
233.833	3.9797
234.261	3.97884
234.362	3.97954
234.467	3.98017
234.582	3.98075
236.439	3.99623
236.607	3.99603
236.785	3.99574
236.968	3.99542
239.162	4.00396
239.544	4.01092
240.45	4.01373
241.452	4.01528
242.929	4.01722
243.478	4.01913
244.037	4.02095
244.601	4.02274
246.065	4.03082
246.123	4.03232
246.186	4.03377
246.258	4.03514
248.012	4.04961
248.945	4.06306
249.731	4.07688
250.555	4.08999
251.679	4.10269
252.388	4.11222
253.111	4.12113
253.616	4.13043
254.442	4.14005
254.977	4.14637
255.429	4.15013
256.186	4.15458
256.186	4.15458
256.644	4.16487
257.623	4.17203
258.423	4.18062
258.423	4.18062
259.124	4.18569
259.79	4.18916
260.823	4.19165
260.823	4.19165
261.15	4.1969
261.569	4.20026
262.265	4.20411
263.801	4.2122
264.392	4.21342
264.991	4.2146
265.595	4.21574
267.478	4.21711
268.04	4.21576
268.54	4.21406
269.406	4.21054
270.896	4.20148
271.247	4.1996
271.603	4.19768
271.969	4.19571
273.479	4.18634
273.579	4.18447
273.774	4.18277
274.229	4.17975
275.846	4.16822
276.021	4.16593
276.205	4.16364
276.394	4.16133
277.378	4.15048
277.63	4.14722
277.883	4.14393
278.136	4.14062
279.34	4.13059
279.552	4.12744
279.768	4.12426
279.994	4.12106
281.495	4.10559
282.691	4.09238
284.076	4.07904
285.61	4.06513
285.61	4.06513
285.811	4.06018
286.208	4.05476
287.138	4.04413
288.624	4.0326
288.995	4.03113
289.318	4.02907
289.69	4.0276
289.69	4.0276
289.692	4.02642
289.695	4.02525
289.697	4.02407
290.315	4.02935
290.603	4.02718
290.892	4.02491
291.181	4.0226
293.545	3.99772
293.933	3.99629
294.322	3.99478
294.71	3.99322
297.161	3.98502
297.262	3.98479
297.364	3.98449
297.466	3.98414
300.116	3.97786
300.567	3.97786
300.788	3.97736
300.971	3.97594
303.501	3.96856
303.813	3.96765
304.134	3.96669
304.46	3.96565
307.12	3.95298
307.507	3.95206
307.894	3.95113
308.281	3.9502
311.365	3.93899
312.186	3.93689
312.514	3.93561
312.631	3.93406
314.565	3.91794
314.693	3.91768
314.83	3.91733
314.972	3.91693
317.742	3.89806
318.029	3.89624
318.315	3.89432
318.603	3.89233
320.736	3.87696
320.941	3.87581
321.151	3.87467
321.37	3.87352
323.503	3.85745
323.894	3.8538
324.285	3.85006
324.676	3.84618
326.485	3.82897
326.835	3.82552
327.19	3.82193
327.554	3.81825
329.053	3.8043
329.153	3.80543
329.253	3.8065
329.353	3.80744
329.353	3.80744
329.424	3.80411
329.504	3.80076
329.589	3.79738
331.632	3.76884
332.051	3.76275
332.479	3.75643
332.911	3.74996
334.418	3.72662
334.81	3.72033
335.202	3.71396
335.594	3.70748
336.973	3.68753
337.118	3.68462
337.263	3.68162
337.408	3.67842
339.35	3.64044
339.773	3.62638
340.206	3.61166
340.644	3.59632
340.644	3.59632
341.625	3.57965
342.07	3.56962
342.357	3.55787
342.357	3.55787
342.499	3.55793
342.641	3.55799
342.783	3.55805
342.783	3.55805
344.041	3.52522
345.466	3.49209
346.647	3.4477
347.928	3.40295
348.423	3.38872
348.922	3.37368
349.431	3.35793
