Uv/Vis Spectrum: Triethoxyphenylsilane
Formula: C12H20O3Si
CAS: 780-69-8
Melting point: 130/ 20 mm
Instrument: Spektromom 201
Origin: INSTITUTE OF ENERGY PROBLEMS OF CHEMICAL PHYSICS, RAS
Wavelength (nm)	Logarithm epsilon
206.32	3.885
206.49	3.888
206.66	3.892
206.82	3.892
206.99	3.895
207.15	3.899
207.32	3.899
207.49	3.902
207.65	3.905
208.15	3.912
208.65	3.912
209.15	3.919
209.65	3.926
210.15	3.929
210.65	3.932
211.15	3.932
211.65	3.936
212.15	3.932
212.65	3.929
213.14	3.926
213.64	3.919
214.14	3.909
214.64	3.902
215.14	3.888
215.64	3.872
216.14	3.858
216.64	3.841
217.14	3.811
217.64	3.777
218.14	3.736
218.64	3.676
219.13	3.605
219.63	3.53
220.13	3.429
220.63	3.331
221.13	3.23
221.63	3.094
222.13	2.997
222.63	2.878
223.13	2.76
223.65	2.656
224.13	2.571
224.54	2.497
225.05	2.417
225.58	2.333
226.12	2.236
226.62	2.152
227.12	2.067
227.62	2.007
228.12	1.953
228.62	1.909
229.12	1.871
229.62	1.834
230.12	1.801
230.62	1.763
231.11	1.736
231.61	1.723
232.11	1.723
232.61	1.723
233.11	1.726
233.61	1.74
234.11	1.753
234.61	1.767
235.11	1.784
235.61	1.79
236.11	1.814
236.61	1.834
237.1	1.858
237.6	1.878
238.1	1.898
238.6	1.922
239.1	1.939
239.6	1.959
240.1	1.976
240.6	1.996
241.1	2.01
241.6	2.027
242.1	2.047
242.6	2.064
243.09	2.081
243.59	2.098
244.09	2.115
244.59	2.128
245.09	2.145
245.59	2.162
246.09	2.179
246.59	2.186
247.09	2.203
247.59	2.216
248.09	2.23
248.59	2.236
249.08	2.25
249.58	2.267
250.08	2.284
250.58	2.307
251.08	2.338
251.58	2.355
252.08	2.375
252.58	2.392
253.08	2.405
253.58	2.415
254.08	2.419
254.58	2.412
255.07	2.402
255.57	2.402
256.07	2.405
256.57	2.419
257.07	2.463
257.57	2.49
258.07	2.527
258.57	2.561
259.07	2.567
259.57	2.564
260.07	2.544
260.57	2.503
261.06	2.483
261.56	2.48
262.06	2.48
262.56	2.49
263.06	2.524
263.56	2.561
264.06	2.598
264.56	2.628
265.06	2.632
265.37	2.616
265.56	2.598
266.06	2.537
266.56	2.483
267.05	2.422
267.55	2.371
268.05	2.344
268.55	2.341
269.05	2.341
269.55	2.371
270.05	2.426
270.55	2.469
270.75	2.479
271.05	2.476
271.33	2.453
271.55	2.409
272.05	2.253
272.41	2.162
273.04	2.047
273.54	1.953
274.04	1.855
274.54	1.726
275.04	1.638
275.54	1.55
276.04	1.439
276.54	1.344
277.04	1.273
277.54	1.202
278.04	1.132
278.54	1.054
279.03	0.99
279.53	0.922
280.03	0.875
