Uv/Vis Spectrum: Ethanone, 1-(9-anthracenyl)-
Formula: C16H12O
CAS: 784-04-3
Melting point: 73-75
Instrument: Unicam SP 800
Origin: INSTITUTE OF ENERGY PROBLEMS OF CHEMICAL PHYSICS, RAS
Wavelength (nm)	Logarithm epsilon
211.52	4.035
212.36	4.062
213.55	4.083
214.57	4.107
215.75	4.124
217.11	4.134
218.46	4.148
219.82	4.158
221.34	4.165
222.87	4.169
224.39	4.175
225.92	4.175
227.44	4.179
228.79	4.189
229.81	4.213
230.32	4.241
231	4.268
231.5	4.296
232.35	4.323
232.86	4.35
233.54	4.378
234.21	4.405
234.89	4.433
235.4	4.46
236.21	4.493
236.76	4.518
237.43	4.546
237.94	4.573
238.62	4.601
239.13	4.628
239.8	4.656
240.31	4.683
240.82	4.714
241.5	4.741
242.18	4.769
242.68	4.8
243.36	4.827
244.04	4.855
244.55	4.882
245.39	4.909
246.07	4.937
246.75	4.964
247.56	4.997
248.36	5.026
249.15	5.055
249.92	5.081
250.49	5.103
251.06	5.121
251.7	5.14
252.27	5.155
252.78	5.166
253.04	5.171
253.23	5.174
253.48	5.178
253.7	5.179
253.99	5.18
254.25	5.178
254.44	5.174
254.66	5.167
255.04	5.152
255.39	5.136
255.9	5.091
256.4	5.029
256.91	4.968
257.42	4.882
257.93	4.796
258.44	4.707
258.94	4.632
259.45	4.566
259.96	4.498
260.47	4.426
260.98	4.347
261.14	4.314
261.38	4.277
261.99	4.179
262.5	4.117
263.01	4.055
263.52	3.997
264.03	3.935
264.53	3.867
265.04	3.812
265.55	3.761
266.06	3.712
266.57	3.668
267.07	3.627
267.58	3.589
268.09	3.551
268.6	3.514
269.11	3.483
269.69	3.457
270.55	3.421
271.65	3.383
272.49	3.359
273.51	3.335
274.36	3.311
275.37	3.291
276.56	3.27
277.46	3.247
278.42	3.225
279.44	3.201
280.46	3.177
281.47	3.153
282.49	3.129
283.67	3.109
284.69	3.088
286.04	3.071
287.4	3.054
288.75	3.037
290.11	3.023
291.46	3.009
292.99	3.003
294.51	2.992
296.04	2.992
297.56	2.989
299.09	2.989
300.44	2.999
301.97	3.006
303.32	3.02
304.51	3.037
305.69	3.054
306.71	3.075
307.73	3.095
308.91	3.116
309.93	3.136
311.11	3.157
312.3	3.174
313.65	3.191
315.01	3.208
316.36	3.219
317.72	3.232
318.9	3.249
320.09	3.27
321.11	3.294
321.95	3.318
322.8	3.342
323.48	3.37
324.32	3.394
325.34	3.418
326.19	3.445
327.37	3.466
328.56	3.486
329.91	3.5
331.44	3.496
332.96	3.486
334.49	3.493
335.84	3.51
336.86	3.531
337.87	3.551
338.72	3.575
339.57	3.603
340.58	3.627
341.43	3.651
342.45	3.671
343.29	3.699
344.31	3.723
345.84	3.723
347.19	3.706
348.21	3.685
349.05	3.661
350.41	3.647
351.76	3.637
353.29	3.634
354.64	3.647
355.66	3.671
356.68	3.695
357.35	3.723
358.03	3.75
358.88	3.774
359.56	3.802
360.4	3.826
361.25	3.85
362.1	3.877
363.45	3.894
364.81	3.877
365.82	3.857
366.5	3.829
367.18	3.802
367.69	3.774
368.53	3.75
369.38	3.723
369.89	3.695
370.73	3.671
371.58	3.647
372.26	3.62
372.95	3.615
373.78	3.616
374.8	3.637
375.82	3.661
376.66	3.688
377.51	3.712
378.36	3.736
379.37	3.761
380.28	3.788
381.07	3.809
382.08	3.829
383.27	3.846
383.99	3.848
384.79	3.839
385.47	3.812
385.81	3.781
386.32	3.75
386.66	3.719
386.99	3.688
387.5	3.658
387.84	3.627
388.35	3.596
388.69	3.565
389.2	3.538
389.54	3.507
390.04	3.476
390.38	3.445
390.89	3.418
391.4	3.387
391.91	3.359
392.25	3.328
392.58	3.298
393.09	3.27
393.6	3.239
393.94	3.208
394.45	3.181
394.96	3.15
395.12	3.119
395.63	3.088
395.97	3.057
396.48	3.03
396.99	3.003
397.33	2.972
397.83	2.944
398.34	2.913
398.68	2.883
399.02	2.852
399.53	2.824
400.04	2.797
400.38	2.766
400.88	2.738
401.39	2.711
401.9	2.68
402.41	2.653
402.92	2.622
403.42	2.594
403.93	2.564
404.27	2.533
404.78	2.505
405.29	2.478
405.8	2.45
406.3	2.42
406.81	2.392
407.32	2.361
407.83	2.334
408.34	2.303
408.68	2.272
409.35	2.245
409.86	2.214
410.37	2.183
410.88	2.152
411.39	2.121
411.72	2.09
412.23	2.063
412.74	2.035
413.25	2.008
413.59	1.977
414.26	1.95
414.77	1.922
415.28	1.895
415.96	1.867
416.47	1.837
416.97	1.809
417.65	1.782
418.16	1.754
418.84	1.727
419.52	1.699
420.19	1.672
420.7	1.644
421.55	1.62
422.06	1.593
422.9	1.569
423.58	1.542
424.43	1.514
425.27	1.487
425.95	1.459
426.8	1.435
427.48	1.408
