Uv/Vis Spectrum: 2-Cyclohexen-1-one, 3,5,5-trimethyl-
Formula: C9H14O
CAS: 78-59-1
Boiling point: 89/ 10 mm
Instrument: Unicam SP 700
Origin: INSTITUTE OF ENERGY PROBLEMS OF CHEMICAL PHYSICS, RAS
Wavelength (nm)	Logarithm epsilon
201.1	3.222
201.71	3.235
202.33	3.245
202.94	3.256
203.65	3.267
204.37	3.277
204.99	3.288
205.54	3.301
206.08	3.316
206.54	3.333
207	3.35
207.46	3.365
207.92	3.382
208.29	3.399
208.76	3.416
209.13	3.433
209.6	3.451
210.07	3.468
210.36	3.485
210.83	3.502
211.21	3.519
211.6	3.536
211.98	3.553
212.37	3.57
212.76	3.587
213.24	3.604
213.63	3.622
214.03	3.639
214.42	3.656
214.91	3.673
215.31	3.69
215.81	3.707
216.31	3.724
216.71	3.741
217.22	3.758
217.62	3.775
218.03	3.793
218.54	3.807
218.95	3.825
219.46	3.84
219.98	3.857
220.5	3.874
221.02	3.891
221.55	3.908
222.18	3.923
222.61	3.94
223.25	3.955
223.78	3.972
224.43	3.987
224.97	4.004
225.73	4.017
226.39	4.032
227.16	4.045
227.94	4.055
228.72	4.066
229.51	4.077
230.41	4.085
231.21	4.096
232.25	4.1
233.3	4.105
234.35	4.107
235.42	4.107
236.49	4.105
237.45	4.098
238.42	4.087
239.28	4.077
240.14	4.064
240.89	4.049
241.64	4.034
242.39	4.021
243.02	4.006
244.81	3.949
244.94	3.944
245.06	3.94
245.19	3.936
245.32	3.931
245.45	3.927
245.58	3.923
245.71	3.919
245.84	3.914
245.97	3.91
246.1	3.908
246.23	3.904
246.36	3.899
246.75	3.887
247.4	3.865
248.06	3.835
248.72	3.805
249.39	3.773
250.06	3.741
250.73	3.698
251.41	3.649
252.09	3.607
252.77	3.564
253.46	3.515
254.15	3.468
254.84	3.412
255.54	3.359
256.24	3.297
256.95	3.235
257.66	3.162
258.37	3.068
259.09	2.968
259.81	2.882
260.53	2.799
261.26	2.72
262	2.638
262.74	2.544
263.48	2.465
264.22	2.384
264.98	2.307
265.73	2.226
266.49	2.147
267.25	2.074
268.02	1.974
268.79	1.901
269.57	1.82
270.35	1.737
271.14	1.658
271.93	1.581
272.72	1.497
273.52	1.442
274.33	1.401
275.14	1.365
275.95	1.337
276.77	1.318
277.59	1.309
278.42	1.316
279.26	1.318
280.09	1.326
280.94	1.331
281.79	1.339
282.64	1.35
283.5	1.358
284.36	1.369
285.23	1.382
286.11	1.393
286.99	1.41
287.87	1.422
288.76	1.435
289.66	1.45
290.56	1.463
291.47	1.476
292.39	1.491
293.3	1.502
294.23	1.516
295.16	1.525
296.1	1.536
297.04	1.546
297.99	1.557
298.95	1.568
299.91	1.578
300.87	1.589
301.85	1.598
302.83	1.606
303.81	1.613
304.81	1.619
305.81	1.625
306.81	1.63
307.82	1.634
308.84	1.638
309.87	1.64
310.9	1.64
311.94	1.643
312.99	1.643
314.04	1.643
315.1	1.64
316.17	1.64
317.25	1.638
318.33	1.632
319.42	1.628
320.52	1.621
321.62	1.613
322.74	1.606
323.86	1.596
324.98	1.583
326.12	1.568
327.26	1.555
328.42	1.542
329.58	1.525
330.75	1.504
331.92	1.489
333.11	1.463
334.3	1.44
335.5	1.416
336.72	1.388
337.94	1.36
339.16	1.328
340.4	1.296
341.65	1.264
342.9	1.23
344.17	1.187
345.44	1.145
346.73	1.102
348.02	1.057
