Uv/Vis Spectrum: Benzenamine, N-[(4-nitrophenyl)methylene]-
Formula: C13H10N2O2
CAS: 785-80-8
Melting point: 117-118
Instrument: Beckman Acta II
Origin: INSTITUTE OF ENERGY PROBLEMS OF CHEMICAL PHYSICS, RAS
Wavelength (nm)	Logarithm epsilon
220.353	4.215
221.574	4.211
222.808	4.205
224.056	4.195
225.318	4.181
226.595	4.163
227.886	4.139
229.191	4.11
230.512	4.075
231.848	4.035
233.2	3.991
234.567	3.943
235.951	3.896
236.033	3.899
237.434	3.866
238.852	3.838
240.286	3.816
241.739	3.802
243.208	3.797
244.696	3.798
246.202	3.807
247.727	3.822
249.271	3.841
250.834	3.864
252.31	3.887
253.911	3.91
255.533	3.933
257.176	3.955
258.84	3.976
260.526	3.997
262.234	4.017
263.965	4.036
265.718	4.055
267.495	4.074
269.296	4.091
271.121	4.107
272.971	4.122
274.779	4.136
276.68	4.151
278.607	4.167
280.561	4.184
282.543	4.203
282.57	4.204
284.58	4.222
286.619	4.235
288.688	4.244
290.787	4.249
292.916	4.25
295.077	4.249
297.27	4.246
299.496	4.24
301.755	4.228
303.789	4.22
306.114	4.212
308.474	4.205
310.872	4.201
313.307	4.198
315.78	4.197
318.293	4.196
320.846	4.194
323.44	4.191
326.077	4.184
328.757	4.171
331.482	4.151
334.164	4.133
336.979	4.11
339.842	4.083
342.754	4.05
345.716	4.01
348.73	3.962
351.797	3.904
354.919	3.834
358.01	3.776
361.243	3.705
364.535	3.618
367.888	3.513
371.303	3.391
374.782	3.258
378.327	3.125
381.939	3.004
385.621	2.891
389.375	2.766
393.202	2.589
