Uv/Vis Spectrum: 2-Propanone, 1-chloro-
Formula: C3H5ClO
CAS: 78-95-5
Boiling point: 58/ 80 mm
Instrument: Bausch and Lomb Spectronic 600
Origin: INSTITUTE OF ENERGY PROBLEMS OF CHEMICAL PHYSICS, RAS
Wavelength (nm)	Logarithm epsilon
210.44	1.389
210.91	1.38
211.23	1.369
211.7	1.36
212.49	1.35
212.97	1.34
213.6	1.33
214.08	1.319
214.71	1.309
215.5	1.299
216.77	1.303
217.56	1.313
218.35	1.323
219.14	1.334
219.93	1.342
220.4	1.352
221.04	1.362
221.51	1.371
222.14	1.381
222.78	1.39
223.25	1.399
223.88	1.407
224.36	1.417
224.99	1.425
225.62	1.433
226.26	1.442
226.89	1.449
227.52	1.457
228.15	1.465
228.79	1.472
229.58	1.48
230.37	1.486
231.16	1.493
232.11	1.499
233.06	1.504
234.16	1.509
235.59	1.51
237.01	1.508
237.8	1.502
238.59	1.496
239.38	1.49
240.17	1.482
240.96	1.476
241.76	1.469
242.55	1.462
243.34	1.455
244.13	1.448
244.92	1.442
245.71	1.433
246.34	1.425
247.13	1.418
247.92	1.411
248.71	1.402
249.51	1.394
250.3	1.385
251.09	1.376
251.88	1.367
252.67	1.358
253.46	1.35
254.25	1.341
255.04	1.331
255.83	1.322
256.62	1.311
257.41	1.302
258.36	1.292
259.31	1.284
260.42	1.275
261.37	1.264
262.47	1.255
263.74	1.249
265.16	1.249
266.59	1.251
267.85	1.258
268.96	1.266
270.22	1.272
271.49	1.278
272.76	1.282
274.02	1.288
275.29	1.294
276.39	1.3
277.66	1.306
279.08	1.309
280.35	1.314
281.61	1.319
283.04	1.322
284.14	1.328
285.57	1.33
286.99	1.328
288.26	1.322
289.05	1.313
289.99	1.303
290.94	1.295
291.89	1.285
292.68	1.275
293.47	1.264
294.42	1.254
295.21	1.243
296.16	1.232
296.95	1.22
297.9	1.21
298.69	1.198
299.64	1.186
300.59	1.175
301.38	1.162
302.33	1.149
303.12	1.135
304.23	1.122
305.02	1.107
305.97	1.094
306.92	1.079
307.87	1.062
308.66	1.045
309.61	1.028
310.71	1.012
311.51	0.993
312.45	0.975
313.4	0.958
314.19	0.936
315.14	0.916
316.09	0.896
317.04	0.871
318.15	0.848
319.1	0.819
320.05	0.789
321.15	0.761
321.94	0.727
323.05	0.7
324.16	0.666
325.11	0.629
326.21	0.588
327.32	0.543
