Uv/Vis Spectrum: Methyl vinyl ketone
Formula: C4H6O
CAS: 78-94-4
Boiling point: 81.4
Instrument: unknown
Origin: INSTITUTE OF ENERGY PROBLEMS OF CHEMICAL PHYSICS, RAS
Wavelength (nm)	Logarithm epsilon
221.36	3.41
222.69	3.34
223.9	3.265
224.49	3.236
226.46	3.114
228.43	2.987
230.4	2.848
232.37	2.71
234.34	2.549
236.31	2.372
238.28	2.195
240.25	1.979
242.22	1.774
244.19	1.502
246.16	1.225
248.13	0.993
250.1	0.871
252.07	0.738
254.04	0.66
256.01	0.611
257.98	0.588
259.95	0.583
261.92	0.588
263.89	0.605
265.86	0.627
267.83	0.649
269.8	0.677
271.78	0.71
274.01	0.74
276.44	0.774
277.98	0.799
279.66	0.827
281.63	0.86
283.6	0.888
285.78	0.923
287.54	0.954
289.51	0.993
291.48	1.026
293.45	1.058
295.42	1.087
297.39	1.12
299.36	1.159
301.33	1.192
303.3	1.225
305.27	1.264
307.24	1.292
309.21	1.314
311.18	1.336
313.09	1.352
315.12	1.364
317.09	1.369
319.06	1.375
320.88	1.38
323	1.38
324.97	1.375
326.94	1.369
328.91	1.364
330.88	1.353
332.92	1.34
334.82	1.325
336.79	1.308
338.77	1.281
340.74	1.253
342.23	1.226
344.68	1.187
346.58	1.145
348.62	1.104
350.59	1.059
352.56	1.009
354.53	0.965
356.5	0.91
358.47	0.854
360.44	0.782
362.41	0.721
364.38	0.644
