Uv/Vis Spectrum: Acetic acid, chloro-
Formula: C2H3ClO2
CAS: 79-11-8
Melting point: 63
Boiling point: 189.3
Instrument: Frankfurt
Origin: INSTITUTE OF ENERGY PROBLEMS OF CHEMICAL PHYSICS, RAS
Wavelength (nm)	Logarithm epsilon
207.92	1.907
209.48	1.903
211.06	1.898
212.48	1.885
214.1	1.885
215.75	1.88
217.43	1.876
218.94	1.863
220.67	1.858
222.42	1.854
224	1.832
225.81	1.823
227.44	1.805
229.09	1.787
230.77	1.765
232.26	1.739
233.77	1.717
235.07	1.69
236.18	1.659
237.51	1.628
238.86	1.597
239.77	1.561
240.92	1.526
241.84	1.491
243.01	1.455
243.95	1.42
244.9	1.384
245.85	1.349
246.58	1.313
247.54	1.278
248.28	1.243
249.01	1.207
249.5	1.167
250.5	1.132
251.25	1.092
251.75	1.052
252.51	1.012
253.01	0.972
253.78	0.932
254.55	0.893
255.32	0.853
255.84	0.813
256.88	0.777
257.41	0.738
257.93	0.698
258.2	0.658
258.73	0.618
259.26	0.578
260.06	0.538
260.6	0.498
261.41	0.458
261.95	0.419
262.5	0.379
263.32	0.339
264.15	0.299
264.71	0.259
265.54	0.219
266.1	0.179
266.67	0.14
267.52	0.1
268.37	0.06
268.66	0.02
269.52	-0.02
270.1	-0.06
270.68	-0.1
271.26	-0.14
271.84	-0.179
272.14	-0.219
273.02	-0.259
273.62	-0.299
274.21	-0.339
274.81	-0.379
275.41	-0.419
276.01	-0.458
276.62	-0.498
277.53	-0.538
278.45	-0.578
279.38	-0.618
280.31	-0.658
281.56	-0.693
283.15	-0.729
284.75	-0.764
286.69	-0.791
288.66	-0.817
290.66	-0.844
292.68	-0.87
295.08	-0.893
297.52	-0.915
300.36	-0.937
303.25	-0.959
306.2	-0.981
308.45	-1.008
311.11	-1.03
314.21	-1.048
316.98	-1.074
319.8	-1.096
322.66	-1.118
325.58	-1.145
328.12	-1.172
331.14	-1.198
334.22	-1.22
337.35	-1.243
340.08	-1.269
342.86	-1.296
345.68	-1.327
349.03	-1.353
352.45	-1.375
355.93	-1.402
359.49	-1.424
363.11	-1.451
367.35	-1.468
371.68	-1.491
376.12	-1.508
380.09	-1.53
384.73	-1.548
388.89	-1.57
393.14	-1.592
