Uv/Vis Spectrum: Ethene, chlorotrifluoro-
Formula: C2ClF3
CAS: 79-38-9
Melting point: - 158
Boiling point: - 27.8
Instrument: Beckman DU
Origin: INSTITUTE OF ENERGY PROBLEMS OF CHEMICAL PHYSICS, RAS
Wavelength (nm)	Logarithm epsilon
231.13	1.666
231.16	1.663
231.25	1.653
231.36	1.639
231.45	1.628
231.51	1.62
231.59	1.612
231.67	1.603
231.77	1.594
231.86	1.585
231.92	1.58
231.97	1.575
232.07	1.566
232.19	1.554
232.28	1.545
232.42	1.529
232.58	1.512
232.69	1.5
232.79	1.489
232.89	1.476
233.1	1.464
233.2	1.451
233.3	1.438
233.45	1.425
233.61	1.41
233.76	1.396
233.9	1.381
234.03	1.369
234.19	1.351
234.35	1.335
234.54	1.314
234.69	1.298
234.88	1.278
235.06	1.257
235.27	1.236
235.48	1.215
235.69	1.192
235.91	1.168
236.15	1.142
236.39	1.113
236.67	1.086
236.96	1.057
237.28	1.023
237.6	0.987
238.02	0.952
238.35	0.914
238.78	0.872
239.21	0.825
239.75	0.773
240.29	0.714
240.95	0.664
241.62	0.611
242.38	0.53
243.16	0.451
243.95	0.354
244.85	0.253
245.76	0.15
246.58	0.037
247.59	-0.093
248.53	-0.248
249.59	-0.424
