Uv/Vis Spectrum: 2-Propenoic acid, 2-methyl-
Formula: C4H6O2
CAS: 79-41-4
Boiling point: 60/ 12 mm
Instrument: SF-4
Origin: INSTITUTE OF ENERGY PROBLEMS OF CHEMICAL PHYSICS, RAS
Wavelength (nm)	Logarithm epsilon
201.9	3.696
201.99	3.707
202.07	3.718
202.2	3.729
202.33	3.74
202.46	3.75
202.59	3.76
202.77	3.768
202.9	3.778
203.07	3.786
203.28	3.795
203.41	3.803
203.54	3.81
203.76	3.817
203.93	3.825
204.15	3.832
204.37	3.84
204.58	3.847
204.8	3.853
204.97	3.86
205.23	3.866
205.45	3.872
205.7	3.877
206.01	3.881
206.27	3.886
206.57	3.89
206.87	3.894
207.22	3.898
207.61	3.898
208	3.898
208.34	3.894
208.73	3.893
209.08	3.89
209.42	3.885
209.77	3.882
210.03	3.876
210.37	3.874
210.63	3.869
210.93	3.864
211.24	3.858
211.45	3.852
211.71	3.846
211.97	3.841
212.23	3.834
212.49	3.829
212.71	3.821
212.97	3.815
213.18	3.808
213.44	3.803
213.7	3.797
213.96	3.789
214.22	3.782
214.44	3.775
214.65	3.767
214.95	3.761
215.17	3.753
215.43	3.746
215.65	3.738
215.9	3.73
216.16	3.723
216.38	3.715
216.64	3.706
216.86	3.697
217.11	3.689
217.33	3.679
217.59	3.67
217.85	3.66
218.11	3.652
218.32	3.642
218.58	3.632
218.8	3.622
219.06	3.611
219.28	3.6
219.49	3.587
219.71	3.576
219.97	3.565
220.18	3.553
220.44	3.541
220.66	3.528
220.87	3.513
221.09	3.499
221.31	3.485
221.52	3.47
221.78	3.455
222.04	3.439
222.26	3.423
222.52	3.408
222.73	3.388
222.99	3.369
223.21	3.35
223.47	3.33
223.68	3.306
223.9	3.283
224.12	3.26
224.38	3.238
224.59	3.212
224.81	3.184
225.11	3.159
225.33	3.127
225.59	3.093
225.89	3.061
226.15	3.027
226.41	2.99
226.71	2.956
227.01	2.92
227.31	2.872
227.66	2.827
228.01	2.777
228.35	2.721
228.7	2.684
229.04	2.628
229.39	2.547
229.78	2.49
