Uv/Vis Spectrum: Propane, 2-nitro-
Formula: C3H7NO2
CAS: 79-46-9
Melting point: -91.3
Boiling point: 120.2
Instrument: Unicam spectrophotometer or Perkim-Elmer 21
Origin: INSTITUTE OF ENERGY PROBLEMS OF CHEMICAL PHYSICS, RAS
Wavelength (nm)	Logarithm epsilon
250.643	0.899771
250.643	0.899771
251.178	0.91402
251.827	0.931376
252.574	0.951235
253.403	0.972985
254.298	0.996021
255.243	1.01973
256.221	1.04351
257.217	1.06674
258.214	1.08883
259.195	1.10915
260.146	1.12711
261.049	1.14209
261.889	1.15348
262.649	1.16068
262.939	1.15913
262.998	1.15733
263.006	1.16398
263.257	1.17606
263.257	1.17606
264.43	1.19338
265.579	1.20948
266.709	1.22436
267.827	1.23806
268.937	1.2506
270.046	1.26198
271.159	1.27224
272.282	1.28139
273.42	1.28945
274.58	1.29645
275.766	1.3024
276.985	1.30732
278.243	1.31123
279.544	1.31416
280.895	1.31612
282.301	1.31713
283.768	1.31722
283.768	1.31722
285.132	1.31145
286.505	1.3055
287.883	1.29945
287.883	1.29945
289.467	1.28382
291.061	1.26801
292.659	1.25211
292.659	1.25211
292.837	1.24785
293.072	1.24287
293.403	1.23643
293.865	1.22774
294.496	1.21604
295.332	1.20056
296.409	1.18055
297.765	1.15523
299.436	1.12384
301.459	1.08561
303.871	1.03978
303.871	1.03978
304.013	1.03607
304.349	1.02859
304.862	1.0176
305.539	1.00334
306.363	0.986082
307.318	0.966062
308.391	0.943539
309.565	0.918759
310.824	0.891978
312.154	0.863454
313.539	0.833428
314.964	0.802151
314.964	0.802151
315.775	0.782666
316.588	0.763241
317.405	0.743855
318.224	0.72453
319.045	0.705239
319.87	0.685992
320.696	0.66678
321.526	0.647598
322.357	0.62845
323.191	0.609328
324.027	0.590217
324.866	0.571138
325.707	0.552072
326.55	0.533009
327.394	0.513963
328.242	0.49492
329.091	0.475874
329.942	0.456837
330.795	0.437782
331.65	0.418715
332.506	0.399639
333.365	0.380537
334.225	0.361426
335.087	0.342284
335.95	0.323108
335.95	0.323108
336.922	0.303628
337.894	0.28416
338.866	0.264676
339.838	0.245192
340.811	0.225723
341.784	0.206232
342.759	0.186759
343.734	0.167258
344.71	0.1478
345.687	0.128302
345.687	0.128302
346.736	0.103667
347.812	0.079109
349.013	0.056295
