Uv/Vis Spectrum: 1a,6a-dihydro-1a,6a-diphenyl-6H-indeno[1,2-b]oxiren-6-one
Formula: C21H14O2
CAS: 797-98-8
Melting point: 140-141
Instrument: SF-18
Origin: INSTITUTE OF ENERGY PROBLEMS OF CHEMICAL PHYSICS, RAS
Wavelength (nm)	Logarithm epsilon
239.805	3.848
240.805	3.843
241.805	3.834
242.805	3.822
243.805	3.811
244.805	3.799
245.805	3.79
246.805	3.782
247.805	3.777
248.805	3.774
249.805	3.774
250.805	3.775
251.805	3.778
252.805	3.781
253.805	3.785
254.805	3.788
255.805	3.789
256.805	3.789
257.805	3.787
258.805	3.783
259.805	3.777
260.805	3.77
262.03	3.758
263.03	3.741
264.03	3.725
265.03	3.71
266.03	3.693
267.03	3.674
268.03	3.654
269.03	3.631
270.03	3.604
271.03	3.575
272.03	3.543
273.03	3.507
274.03	3.469
275.03	3.427
276.03	3.383
277.03	3.337
278.03	3.288
279.03	3.239
280.03	3.188
281.03	3.136
282.03	3.084
283.03	3.033
284.03	2.982
284.872	2.928
285.872	2.886
286.872	2.844
287.872	2.806
288.872	2.774
289.872	2.749
290.872	2.731
291.872	2.72
292.872	2.714
293.872	2.711
294.872	2.709
295.872	2.707
296.872	2.704
297.872	2.698
298.453	2.691
299.453	2.69
300.453	2.689
301.453	2.687
302.453	2.685
303.453	2.682
304.453	2.679
305.453	2.675
306.453	2.671
307.453	2.666
308.453	2.66
309.453	2.653
310.453	2.646
311.453	2.637
312.453	2.628
313.453	2.618
314.453	2.606
315.453	2.593
316.453	2.579
317.453	2.564
318.453	2.547
319.453	2.528
320.453	2.507
321.453	2.485
322.453	2.46
323.453	2.434
324.453	2.406
325.453	2.376
326.453	2.345
327.453	2.312
328.453	2.279
329.453	2.246
330.555	2.211
331.555	2.182
332.555	2.157
333.555	2.134
334.555	2.115
335.555	2.098
336.555	2.084
337.555	2.072
338.555	2.062
339.555	2.054
340.555	2.048
341.555	2.043
342.555	2.039
343.555	2.036
344.555	2.033
345.555	2.031
346.555	2.03
347.555	2.029
348.555	2.028
349.555	2.028
350.555	2.028
351.355	2.028
352.751	2.022
353.751	2.015
354.751	2.01
355.751	2.005
356.751	2.002
357.751	1.998
358.751	1.995
359.751	1.99
360.751	1.985
361.751	1.979
362.751	1.972
363.751	1.964
364.751	1.954
365.751	1.943
366.751	1.931
367.751	1.917
368.751	1.902
369.751	1.886
370.751	1.869
371.751	1.851
372.751	1.832
373.751	1.812
374.751	1.791
375.751	1.769
376.751	1.747
377.751	1.723
378.751	1.699
379.751	1.674
380.751	1.649
381.751	1.622
382.751	1.595
383.751	1.567
384.751	1.537
385.751	1.507
386.751	1.476
387.751	1.444
388.751	1.411
389.751	1.376
390.751	1.341
391.751	1.304
392.751	1.267
393.751	1.229
