Uv/Vis Spectrum: Hydroperoxide, 1-methyl-1-phenylethyl
Formula: C9H12O2
CAS: 80-15-9
Boiling point: 49.5-51/ 0.01 mm
Instrument: SF-4
Origin: INSTITUTE OF ENERGY PROBLEMS OF CHEMICAL PHYSICS, RAS
Wavelength (nm)	Logarithm epsilon
225.82	2.62
226.29	2.587
226.57	2.569
226.84	2.549
227.19	2.528
227.53	2.508
227.87	2.491
228.21	2.48
228.56	2.469
228.9	2.46
229.24	2.451
229.58	2.445
229.92	2.441
230.27	2.436
230.61	2.431
230.95	2.427
231.29	2.421
231.64	2.418
231.98	2.413
232.32	2.409
232.66	2.406
233	2.403
233.35	2.401
233.69	2.4
234.03	2.398
234.37	2.397
234.72	2.397
235.06	2.397
235.4	2.397
235.74	2.398
236.08	2.398
236.43	2.399
236.77	2.4
237.11	2.4
237.45	2.398
237.8	2.399
238.14	2.4
238.48	2.403
238.82	2.404
239.16	2.406
239.51	2.408
239.85	2.41
240.19	2.413
240.53	2.414
240.88	2.417
241.22	2.419
241.56	2.422
241.9	2.424
242.25	2.428
242.59	2.429
242.93	2.431
243.27	2.433
243.61	2.433
243.96	2.434
244.3	2.437
244.64	2.438
244.98	2.444
245.33	2.452
245.67	2.458
246.01	2.461
246.35	2.461
246.69	2.456
247.04	2.449
247.38	2.444
247.72	2.441
248.06	2.438
248.41	2.438
248.75	2.441
249.09	2.446
249.43	2.451
249.77	2.459
250.12	2.466
250.46	2.473
250.8	2.48
251.14	2.484
251.49	2.478
251.83	2.467
252.17	2.454
252.51	2.444
252.85	2.434
253.2	2.426
253.54	2.42
253.88	2.418
254.22	2.416
254.57	2.418
254.91	2.424
255.25	2.435
255.59	2.446
255.93	2.459
256.28	2.472
256.62	2.484
256.96	2.494
257.3	2.493
257.66	2.484
257.99	2.466
258.34	2.448
258.67	2.428
259.01	2.406
259.32	2.383
259.7	2.357
260	2.333
260.34	2.305
260.73	2.279
261.07	2.265
261.41	2.255
261.75	2.254
262.09	2.252
262.44	2.255
262.78	2.263
263.12	2.284
263.46	2.314
263.81	2.331
264.15	2.337
264.49	2.325
264.83	2.305
265.19	2.281
265.52	2.261
265.89	2.239
266.23	2.217
266.56	2.2
266.85	2.183
267.23	2.163
267.54	2.143
267.91	2.122
268.25	2.104
268.6	2.086
268.94	2.067
269.28	2.049
269.62	2.029
269.97	2.007
270.31	1.987
270.62	1.966
270.99	1.944
271.33	1.924
271.68	1.907
272.02	1.889
272.36	1.862
272.7	1.838
273.05	1.817
273.39	1.795
273.69	1.775
274.07	1.752
274.41	1.731
274.7	1.716
275.02	1.702
275.37	1.687
275.7	1.671
276.07	1.655
276.47	1.644
276.78	1.636
277.15	1.631
277.63	1.626
278.29	1.619
278.99	1.615
279.72	1.61
280.5	1.609
281.26	1.603
282.03	1.581
282.71	1.551
283.4	1.517
284.08	1.472
284.77	1.432
285.45	1.387
286.22	1.351
286.83	1.334
287.6	1.318
288.52	1.314
289.3	1.325
290.07	1.325
290.94	1.315
291.61	1.297
292.38	1.268
293.07	1.219
293.75	1.164
294.44	1.101
295.06	1.043
295.89	0.971
296.66	0.906
297.43	0.829
