Uv/Vis Spectrum: Diphenyldichlorosilane
Formula: C12H10Cl2Si
CAS: 80-10-4
Boiling point: 160/ 11 mm
Instrument: Spektromom 201
Origin: INSTITUTE OF ENERGY PROBLEMS OF CHEMICAL PHYSICS, RAS
Wavelength (nm)	Logarithm epsilon
201.86	4.501
202.37	4.474
202.88	4.443
203.39	4.413
204.07	4.385
204.74	4.358
205.42	4.331
206.44	4.307
207.28	4.284
208.47	4.267
209.82	4.25
211.18	4.236
212.7	4.226
214.23	4.216
215.75	4.216
217.28	4.212
218.8	4.216
220.33	4.222
221.85	4.222
223.21	4.212
224.56	4.195
225.58	4.172
226.26	4.144
226.76	4.117
226.93	4.087
227.44	4.06
227.78	4.029
228.12	3.998
228.29	3.968
228.63	3.937
228.97	3.907
229.31	3.876
229.64	3.846
229.98	3.815
230.32	3.785
230.66	3.754
231.17	3.723
231.51	3.693
231.68	3.662
232.19	3.635
232.52	3.605
232.69	3.574
235.4	3.262
236.42	3.143
237.44	3.024
238.45	2.892
239.47	2.725
240.49	2.661
241.5	2.651
242.52	2.664
243.53	2.681
244.55	2.695
245.57	2.705
246.58	2.712
247.6	2.708
248.62	2.712
249.63	2.715
250.65	2.715
251.67	2.729
252.68	2.752
253.7	2.783
254.72	2.807
255.73	2.837
256.75	2.864
257.43	2.892
257.59	2.898
257.76	2.902
257.93	2.905
258.1	2.909
258.27	2.912
258.44	2.915
258.61	2.919
258.78	2.922
258.95	2.926
259.12	2.929
259.29	2.936
259.46	2.942
259.63	2.949
259.8	2.956
259.97	2.959
260.14	2.966
260.31	2.97
260.47	2.973
260.64	2.976
260.81	2.98
260.98	2.987
261.15	2.99
261.32	2.993
261.49	2.993
261.66	2.997
261.83	2.997
262	3
262.17	3
262.34	2.997
262.51	2.993
262.68	2.993
262.85	2.99
263.02	2.987
263.18	2.98
263.35	2.976
263.52	2.973
263.69	2.966
263.86	2.959
264.03	2.956
264.2	2.956
264.37	2.956
264.54	2.956
264.71	2.956
264.88	2.959
265.05	2.966
265.22	2.973
265.39	2.983
265.56	2.99
265.73	3
265.9	3.01
266.06	3.024
266.23	3.034
266.4	3.048
266.57	3.058
266.74	3.068
266.91	3.075
267.08	3.085
267.25	3.095
267.42	3.109
267.59	3.116
267.76	3.116
267.93	3.105
268.1	3.095
268.27	3.082
268.44	3.068
268.61	3.051
268.77	3.041
268.94	3.031
269.11	3.024
269.28	3.004
269.45	2.98
269.62	2.966
269.79	2.949
269.96	2.932
270.13	2.915
270.3	2.898
270.47	2.881
270.64	2.878
270.81	2.875
270.98	2.875
271.15	2.875
271.32	2.875
271.49	2.881
271.65	2.888
271.82	2.895
271.99	2.902
272.16	2.909
272.33	2.915
272.5	2.929
272.67	2.936
272.84	2.946
273.01	2.953
273.18	2.956
273.35	2.963
273.52	2.973
273.69	2.983
273.86	2.99
274.03	2.997
274.2	3.004
274.37	3.007
274.53	3.017
274.7	3.024
274.87	3.021
275.04	3.004
275.21	2.98
275.38	2.953
275.55	2.915
275.72	2.871
275.89	2.827
276.06	2.79
276.23	2.756
276.4	2.725
276.57	2.722
276.91	2.634
277.58	2.562
278.26	2.443
278.94	2.338
279.62	2.24
280.29	2.128
280.97	2.053
281.65	1.982
282.33	1.921
283	1.873
283.68	1.832
284.36	1.795
285.04	1.764
285.71	1.744
286.39	1.724
287.07	1.703
287.75	1.686
288.43	1.673
289.1	1.666
289.78	1.656
290.46	1.656
290.63	1.652
291.14	1.652
