Uv/Vis Spectrum: .alpha.-Pinene
Formula: C10H16
CAS: 80-56-8
Melting point: -64
Boiling point: 155.9
Instrument: Beckman DU
Origin: INSTITUTE OF ENERGY PROBLEMS OF CHEMICAL PHYSICS, RAS
Wavelength (nm)	Logarithm epsilon
230	3.25
231	3.08
232	2.93
233	2.76
234	2.63
235	2.57
236	2.52
237	2.47
238	2.41
239	2.35
240	2.27
241	2.17
242	2.04
243	1.86
244	1.56
245	1.34
246	1.36
247	1.36
248	1.36
249	1.34
250	1.32
251	1.3
252	1.3
253	1.27
254	1.25
255	1.25
256	1.23
257	1.2
258	1.17
259	1.17
260	1.2
261	1.25
262	1.3
263	1.32
264	1.34
265	1.38
266	1.39
267	1.41
268	1.44
269	1.46
