Uv/Vis Spectrum: 3-Pentanone, 2,2,4,4-tetramethyl-
Formula: C9H18O
CAS: 815-24-7
Boiling point: 152
Instrument: Hilger Uvispek
Origin: INSTITUTE OF ENERGY PROBLEMS OF CHEMICAL PHYSICS, RAS
Wavelength (nm)	Logarithm epsilon
215.13	1.51
215.23	1.506
215.33	1.502
215.43	1.498
215.53	1.493
215.63	1.489
215.73	1.485
215.83	1.478
215.93	1.474
216.03	1.47
216.13	1.465
216.23	1.461
216.53	1.45
217.23	1.408
217.94	1.354
218.66	1.305
219.38	1.262
220.1	1.213
220.83	1.158
221.56	1.108
222.3	1.048
223.04	0.991
223.79	0.933
224.54	0.865
225.3	0.803
226.06	0.736
226.83	0.659
227.6	0.593
228.38	0.525
229.17	0.471
229.95	0.422
230.75	0.388
231.55	0.354
232.36	0.328
233.17	0.311
233.98	0.298
234.81	0.287
235.64	0.277
236.47	0.27
237.31	0.266
238.16	0.262
239.01	0.255
239.87	0.255
240.74	0.255
241.61	0.255
242.48	0.259
243.37	0.266
244.26	0.274
245.16	0.279
246.06	0.287
246.97	0.298
247.89	0.315
248.81	0.328
249.74	0.347
250.68	0.369
251.62	0.394
252.58	0.422
253.54	0.454
254.5	0.495
255.19	0.519
255.88	0.54
256.84	0.568
257.81	0.595
258.64	0.622
259.45	0.647
260.45	0.677
261.48	0.709
262.62	0.746
263.54	0.775
264.59	0.807
265.64	0.837
266.7	0.865
267.77	0.892
268.85	0.918
269.94	0.942
271.04	0.969
272.14	0.993
273.25	1.014
274.38	1.042
275.51	1.063
276.65	1.087
277.8	1.108
278.96	1.128
280.13	1.147
281.31	1.164
282.51	1.179
283.71	1.196
284.92	1.215
286.14	1.226
287.37	1.237
288.61	1.247
289.87	1.258
291.13	1.267
292.4	1.275
293.69	1.284
294.99	1.288
296.3	1.294
297.62	1.294
298.95	1.292
300.3	1.288
301.65	1.277
303.02	1.269
304.4	1.258
305.8	1.245
307.21	1.232
308.63	1.211
310.06	1.192
311.51	1.168
312.97	1.14
314.44	1.108
315.93	1.078
317.43	1.038
318.95	0.995
320.48	0.946
322.03	0.886
323.59	0.83
325.16	0.768
326.75	0.7
328.36	0.606
329.99	0.497
330.48	0.459
330.99	0.417
331.38	0.384
331.83	0.351
332.34	0.311
332.79	0.278
333.28	0.244
333.76	0.212
333.93	0.202
334.14	0.187
334.71	0.153
