Uv/Vis Spectrum: 2-Methylpropanoic acid, 2-methyl-, 2-propenyl ester
Formula: C8H14O2
CAS: 816-73-9
Boiling point: 150
Instrument: Beckman DK-2A
Origin: INSTITUTE OF ENERGY PROBLEMS OF CHEMICAL PHYSICS, RAS
Wavelength (nm)	Logarithm epsilon
175.196	3.938
176.196	3.958
177.196	3.975
178.196	3.989
179.196	4
180.196	4.009
181.196	4.014
182.196	4.016
183.196	4.015
184.196	4.01
185.196	4.001
186.196	3.989
187.344	3.968
188.344	3.94
189.344	3.915
190.344	3.887
191.344	3.852
192.344	3.804
193.344	3.743
194.344	3.667
195.344	3.578
196.344	3.476
197.344	3.367
198.251	3.264
199.251	3.154
200.229	3.044
201.229	2.94
202.229	2.827
203.31	2.696
204.31	2.589
205.31	2.493
206.31	2.398
207.31	2.299
208.31	2.187
209.207	2.07
210.207	1.946
211.207	1.825
212.207	1.706
