Uv/Vis Spectrum: 2-methyl-2-propenoic acid
Formula: C8H12O2
CAS: 816-74-0
Boiling point: 70/ 25 mm
Instrument: Beckman DK-2A
Origin: INSTITUTE OF ENERGY PROBLEMS OF CHEMICAL PHYSICS, RAS
Wavelength (nm)	Logarithm epsilon
175.132	4.051
176.132	4.078
177.132	4.102
178.132	4.122
179.132	4.14
180.132	4.154
181.132	4.165
182.132	4.174
183.132	4.179
184.132	4.183
185.132	4.184
186.132	4.182
187.132	4.179
188.132	4.173
189.132	4.166
190.132	4.157
191.132	4.146
192.132	4.134
193.132	4.12
194.132	4.106
195.313	4.084
196.313	4.069
197.313	4.057
198.313	4.048
199.313	4.039
200.313	4.032
201.313	4.024
202.313	4.016
203.313	4.008
204.313	3.998
205.313	3.986
206.313	3.972
207.313	3.956
208.313	3.938
209.313	3.916
210.313	3.892
211.313	3.864
212.19	3.838
213.19	3.8
214.19	3.766
215.19	3.725
216.19	3.674
217.19	3.61
218.19	3.536
219.19	3.454
220.19	3.368
