Uv/Vis Spectrum: 9,10-Anthracenedione, 1,4-dihydroxy-
Formula: C14H8O4
CAS: 81-64-1
Melting point: 195-196
Instrument: Unicam SP 700
Origin: INSTITUTE OF ENERGY PROBLEMS OF CHEMICAL PHYSICS, RAS
Wavelength (nm)	Logarithm epsilon
223.19	4.383
224.16	4.385
225.14	4.385
226.13	4.385
227.12	4.383
228.02	4.374
228.81	4.363
229.6	4.351
230.29	4.338
230.97	4.325
231.78	4.314
232.83	4.308
233.89	4.308
234.84	4.314
235.79	4.323
236.76	4.333
237.49	4.348
238.1	4.365
238.83	4.38
239.45	4.395
240.2	4.408
240.95	4.421
241.7	4.436
242.46	4.451
243.35	4.464
244.12	4.477
244.5	4.483
244.89	4.489
245.28	4.497
245.75	4.508
246.2	4.517
246.5	4.522
246.9	4.526
247.45	4.529
248.01	4.53
248.54	4.529
248.94	4.527
249.33	4.523
249.69	4.518
250.03	4.511
250.31	4.503
250.58	4.494
250.91	4.483
251.18	4.474
251.54	4.462
252.23	4.442
252.92	4.43
253.61	4.425
254.3	4.417
255	4.408
255.71	4.393
256.42	4.37
257.13	4.321
257.84	4.235
258.56	4.148
259.29	4.069
260.01	4.026
260.74	3.994
261.48	3.966
262.22	3.945
262.96	3.932
263.71	3.923
264.47	3.919
265.22	3.921
265.98	3.925
266.75	3.934
267.52	3.945
268.29	3.955
269.07	3.966
269.86	3.977
270.65	3.987
271.44	4
272.24	4.011
273.04	4.022
273.85	4.028
274.66	4.036
275.47	4.039
276.3	4.045
277.12	4.047
277.95	4.039
278.79	4.041
279.63	4.041
280.48	4.041
281.33	4.041
282.19	4.039
283.05	4.034
283.91	4.028
284.79	4.017
285.67	4
286.55	3.979
287.44	3.957
288.33	3.934
289.23	3.913
290.14	3.904
291.05	3.874
291.97	3.831
292.89	3.78
293.82	3.693
294.75	3.611
295.69	3.552
296.64	3.507
297.59	3.472
298.55	3.436
299.52	3.406
300.49	3.376
301.47	3.353
302.45	3.334
303.44	3.323
304.44	3.317
305.44	3.312
306.45	3.31
307.47	3.306
308.49	3.306
309.52	3.308
310.56	3.31
311.6	3.314
312.66	3.321
313.71	3.325
314.78	3.334
315.85	3.34
316.93	3.344
318.02	3.353
319.12	3.355
320.22	3.357
321.33	3.364
322.45	3.364
323.57	3.366
324.71	3.368
325.85	3.368
327	3.366
328.16	3.366
329.33	3.364
330.5	3.355
331.68	3.349
332.87	3.336
334.07	3.323
335.28	3.308
336.5	3.293
337.73	3.274
338.96	3.252
340.21	3.233
341.46	3.205
342.72	3.18
344	3.152
345.28	3.12
346.57	3.086
347.87	3.056
349.18	3.013
350.5	2.966
351.83	2.926
353.18	2.891
354.53	2.855
355.89	2.823
357.26	2.791
358.64	2.761
360.04	2.742
361.44	2.729
362.86	2.725
364.28	2.727
365.72	2.731
367.17	2.742
368.63	2.757
370.1	2.772
371.59	2.791
373.46	2.816
375.06	2.84
376.46	2.86
378.16	2.884
379.66	2.904
380.75	2.919
382.32	2.949
383.91	2.979
385.5	3.007
387.11	3.039
388.74	3.071
390.38	3.109
392.03	3.143
393.69	3.167
395.37	3.195
397.07	3.225
398.78	3.25
400.5	3.278
402.24	3.304
403.99	3.329
405.76	3.353
407.55	3.381
409.35	3.408
411.16	3.436
413	3.466
414.85	3.496
416.71	3.532
418.59	3.562
420.49	3.588
422.41	3.611
424.34	3.635
426.3	3.656
428.27	3.675
430.26	3.693
432.26	3.712
434.29	3.725
436.33	3.742
438.4	3.754
440.48	3.767
442.59	3.793
444.71	3.81
446.86	3.827
449.02	3.848
451.21	3.866
453.42	3.876
455.65	3.885
457.9	3.891
460.17	3.898
462.47	3.9
464.79	3.902
467.13	3.904
469.5	3.906
471.89	3.91
474.31	3.913
476.75	3.915
479.21	3.915
481.7	3.913
484.22	3.889
486.77	3.855
489.34	3.821
491.93	3.797
494.56	3.774
497.21	3.75
499.32	3.723
500.83	3.695
502.66	3.671
505.35	3.652
507.14	3.633
509.18	3.614
511.22	3.592
512.69	3.575
514.25	3.554
516.06	3.517
517.23	3.492
518.51	3.464
520.1	3.425
520.68	3.408
521.27	3.361
521.86	3.319
522.45	3.28
523.04	3.237
523.63	3.199
524.22	3.154
524.81	3.124
525.41	3.084
526.2	3.025
527.11	2.94
527.96	2.863
528.41	2.812
529.03	2.747
529.56	2.691
530.22	2.616
530.83	2.541
531.44	2.483
532.05	2.417
532.66	2.334
