Uv/Vis Spectrum: 1,8-Naphthalic anhydride
Formula: C12H6O3
CAS: 81-84-5
Melting point: 274-275
Instrument: Hilger Ultrascan
Origin: INSTITUTE OF ENERGY PROBLEMS OF CHEMICAL PHYSICS, RAS
Wavelength (nm)	Logarithm epsilon
200.19	4.237
200.27	4.235
200.36	4.235
200.45	4.235
200.53	4.235
200.62	4.224
201.06	4.224
201.49	4.222
201.93	4.22
202.37	4.22
202.81	4.222
203.26	4.226
203.71	4.229
204.15	4.237
204.6	4.246
205.06	4.256
205.51	4.269
205.97	4.282
206.43	4.291
206.89	4.295
207.35	4.301
207.81	4.308
208.28	4.314
208.75	4.318
209.22	4.327
209.69	4.338
210.17	4.348
210.65	4.353
211.13	4.359
211.61	4.361
212.09	4.361
212.58	4.361
213.07	4.353
213.56	4.342
214.05	4.335
214.54	4.318
215.04	4.303
215.54	4.284
216.04	4.267
216.55	4.254
217.06	4.25
217.56	4.244
218.08	4.244
218.59	4.244
219.11	4.248
219.63	4.252
220.15	4.256
220.67	4.265
221.2	4.273
221.73	4.28
222.26	4.288
222.79	4.297
223.33	4.308
223.87	4.318
224.41	4.329
224.95	4.34
225.5	4.348
226.05	4.355
226.6	4.363
227.16	4.374
227.72	4.385
228.28	4.393
228.84	4.4
229.41	4.406
229.97	4.41
230.55	4.415
231.12	4.417
231.7	4.415
232.28	4.41
232.86	4.406
233.45	4.397
234.04	4.387
234.63	4.376
235.22	4.363
235.82	4.353
236.42	4.34
237.03	4.323
237.64	4.31
238.25	4.293
238.86	4.278
239.48	4.259
240.1	4.241
240.72	4.216
241.35	4.194
241.98	4.171
242.61	4.139
243.25	4.109
243.79	4.085
244.38	4.064
245.02	4.039
245.7	4
246.48	3.947
247.14	3.885
247.8	3.816
248.46	3.771
249.13	3.709
249.8	3.643
250.47	3.585
251.15	3.536
251.83	3.481
252.52	3.421
253.21	3.372
253.9	3.327
254.6	3.286
255.3	3.256
256	3.224
256.71	3.201
257.43	3.173
258.14	3.158
258.85	3.148
259.59	3.139
260.32	3.13
261.02	3.124
261.85	3.118
262.53	3.109
263.27	3.092
264.02	3.073
264.78	3.056
265.53	3.038
266.3	3.026
267.02	3.014
267.83	3.002
268.61	2.991
269.39	2.985
270.18	2.981
270.97	2.979
271.76	2.976
272.52	2.975
273.35	2.975
274.14	2.975
274.97	2.975
275.8	2.979
276.62	2.985
277.46	2.995
278.28	3.011
279.12	3.03
279.96	3.049
280.81	3.07
281.66	3.092
282.52	3.113
283.39	3.135
284.25	3.156
285.23	3.183
286.1	3.205
286.98	3.227
288.32	3.255
289.58	3.28
290.49	3.301
291.4	3.325
292.32	3.346
293.24	3.37
294.17	3.393
295.11	3.414
295.59	3.426
296.05	3.436
297	3.457
297.95	3.481
298.91	3.502
299.88	3.528
300.85	3.553
301.83	3.575
302.82	3.6
303.81	3.624
304.81	3.645
305.82	3.667
306.83	3.69
307.85	3.712
308.87	3.735
309.9	3.759
310.94	3.778
311.99	3.799
313.04	3.825
314.1	3.844
315.17	3.863
316.24	3.878
317.33	3.897
318.42	3.917
319.51	3.932
320.62	3.949
321.73	3.959
322.85	3.974
323.98	3.987
325.07	3.999
326.26	4.009
327.32	4.018
328.56	4.026
329.75	4.036
330.87	4.045
332.24	4.055
333.24	4.064
334.5	4.073
335.71	4.081
336.93	4.085
338.15	4.088
339.39	4.092
340.64	4.096
341.89	4.102
343.08	4.105
344.43	4.107
345.72	4.098
347.01	4.088
348.18	4.073
349.63	4.047
350.95	4.015
352.29	3.989
353.63	3.962
354.98	3.921
356.35	3.872
357.72	3.81
359.11	3.735
360.5	3.63
361.46	3.556
362.7	3.425
363.45	3.334
363.99	3.254
364.49	3.156
365.04	3.052
365.63	2.944
366.23	2.837
366.82	2.729
367.42	2.615
368.02	2.487
368.99	2.257
