Uv/Vis Spectrum: Benzanthrone
Formula: C17H10O
CAS: 82-05-3
Melting point: 170
Instrument: unknown
Origin: INSTITUTE OF ENERGY PROBLEMS OF CHEMICAL PHYSICS, RAS
Wavelength (nm)	Logarithm epsilon
221.8	4.457
222.3	4.462
222.69	4.467
223.59	4.477
224.05	4.483
224.49	4.487
224.96	4.492
225.65	4.503
226.33	4.513
226.94	4.522
227.7	4.534
228.39	4.544
228.98	4.549
229.83	4.548
230.78	4.539
231.74	4.523
232.95	4.501
234.48	4.475
236.16	4.447
237.96	4.416
239.76	4.375
241.55	4.303
243.35	4.272
245.14	4.252
246.94	4.252
248.73	4.262
250.53	4.282
252.33	4.293
254.12	4.293
255.92	4.272
257.71	4.231
259.51	4.19
261.31	4.129
263.1	4.088
264.9	4.047
266.69	4.006
268.49	3.975
270.29	3.954
272.08	3.954
274.15	3.953
275.67	3.934
276.85	3.914
277.7	3.892
279.27	3.873
281.06	3.873
282.86	3.883
284.65	3.883
286.66	3.875
288.25	3.852
289.07	3.833
290.04	3.811
291.84	3.801
293.48	3.81
295.43	3.832
297.32	3.863
299.02	3.883
300.82	3.903
302.58	3.922
304.43	3.932
306.13	3.94
308	3.944
309.83	3.94
311.59	3.913
313.39	3.883
315.18	3.852
316.98	3.821
318.78	3.78
320.57	3.729
322.37	3.678
324.16	3.586
325.96	3.493
327.76	3.432
329.55	3.37
331.35	3.34
333.14	3.35
334.94	3.381
336.74	3.401
338.57	3.415
340.33	3.432
342.12	3.442
344.33	3.451
345.71	3.473
347.51	3.524
349.31	3.586
351.1	3.627
352.9	3.667
354.69	3.698
356.49	3.719
358.39	3.741
360.08	3.76
361.73	3.777
363.67	3.791
365.47	3.801
367.16	3.812
369.06	3.821
370.86	3.832
372.65	3.842
374.45	3.852
376.75	3.868
378.53	3.887
379.84	3.903
381.63	3.934
383.43	3.954
385.23	3.975
387.02	3.985
388.82	3.995
390.61	4.006
392.41	4.006
394.2	4.006
396	4.006
397.8	3.985
399.59	3.965
401.39	3.934
403.31	3.88
405.1	3.81
406.78	3.749
408.57	3.667
410.37	3.596
412.16	3.503
413.96	3.432
415.76	3.34
417.55	3.227
419.35	3.124
421.14	3.022
422.94	2.909
424.74	2.817
