Uv/Vis Spectrum: 1,5-Hexadien-3-yne
Formula: C6H6
CAS: 821-08-9
Boiling point: 85
Instrument: SF-4
Origin: INSTITUTE OF ENERGY PROBLEMS OF CHEMICAL PHYSICS, RAS
Wavelength (nm)	Logarithm epsilon
216.86	3.62
217.37	3.606
217.97	3.592
218.66	3.579
219.35	3.569
220.03	3.556
220.72	3.548
221.49	3.545
222.18	3.553
222.86	3.561
223.55	3.572
224.23	3.584
224.75	3.599
225.26	3.613
225.78	3.627
226.2	3.643
226.72	3.658
227.15	3.674
227.58	3.69
228.01	3.704
228.43	3.717
228.95	3.729
229.46	3.74
229.98	3.75
230.58	3.76
231.09	3.77
231.69	3.778
232.29	3.788
232.98	3.796
233.41	3.808
233.66	3.82
233.92	3.832
234.09	3.845
234.35	3.857
234.78	3.866
235.55	3.869
236.32	3.869
236.84	3.877
237.18	3.887
237.52	3.897
237.87	3.906
238.12	3.917
238.38	3.927
238.72	3.936
238.98	3.945
239.32	3.953
239.75	3.962
240.18	3.97
240.78	3.975
241.55	3.977
242.24	3.972
243.01	3.969
243.7	3.973
244.21	3.98
244.72	3.987
245.15	3.994
245.58	4.002
245.93	4.009
246.27	4.017
246.61	4.024
246.87	4.031
247.13	4.038
247.47	4.045
247.73	4.053
248.07	4.06
248.33	4.067
248.5	4.075
248.75	4.082
248.93	4.089
249.1	4.096
249.27	4.103
249.44	4.11
249.61	4.116
249.78	4.123
250.04	4.129
250.3	4.135
250.64	4.14
250.81	4.147
251.07	4.153
251.33	4.158
251.67	4.163
252.18	4.167
252.96	4.167
253.56	4.163
253.9	4.157
254.24	4.152
254.5	4.147
254.67	4.14
254.84	4.134
255.19	4.128
255.36	4.122
255.53	4.115
255.61	4.109
255.7	4.102
255.87	4.095
256.13	4.088
256.3	4.081
256.47	4.074
256.73	4.067
256.9	4.06
257.07	4.052
257.33	4.045
257.59	4.038
257.84	4.03
258.1	4.022
258.53	4.015
258.87	4.008
259.21	4
259.73	3.993
260.5	3.992
261.1	3.997
261.53	4.005
261.87	4.012
262.13	4.021
262.39	4.029
262.64	4.037
262.82	4.045
262.99	4.052
263.24	4.059
263.42	4.066
263.59	4.074
263.67	4.081
263.76	4.088
263.93	4.095
264.19	4.102
264.53	4.108
264.96	4.113
265.73	4.114
266.25	4.109
266.59	4.103
266.85	4.096
267.02	4.089
267.27	4.083
267.45	4.075
267.7	4.068
267.87	4.061
268.05	4.053
268.22	4.046
268.39	4.038
268.56	4.03
268.82	4.022
269.03	4.014
269.25	4.006
269.42	3.997
269.62	3.987
269.76	3.979
269.99	3.969
270.14	3.963
270.36	3.953
270.56	3.945
270.79	3.935
270.98	3.927
271.22	3.916
271.39	3.905
271.53	3.897
271.73	3.884
271.9	3.873
272.08	3.861
272.33	3.849
272.42	3.837
272.68	3.824
272.85	3.811
273.1	3.797
273.19	3.783
273.28	3.769
273.53	3.754
273.7	3.738
273.88	3.722
274.13	3.707
274.31	3.69
274.56	3.674
274.74	3.656
274.91	3.638
275.1	3.617
275.33	3.599
275.59	3.579
275.85	3.559
276.11	3.534
276.36	3.511
276.62	3.487
276.88	3.458
277.05	3.427
277.39	3.397
277.73	3.365
277.99	3.331
278.42	3.298
278.68	3.258
279.11	3.213
279.54	3.163
280.05	3.115
280.56	3.068
281.08	3.007
281.68	2.957
282.28	2.9
282.97	2.846
283.74	2.791
284.46	2.73
285.13	2.674
285.8	2.617
286.57	2.548
287.34	2.49
