Uv/Vis Spectrum: Cyclohexanone, 2-chloro-
Formula: C6H9ClO
CAS: 822-87-7
Melting point: 22
Instrument: Hilger Uvispek
Origin: INSTITUTE OF ENERGY PROBLEMS OF CHEMICAL PHYSICS, RAS
Wavelength (nm)	Logarithm epsilon
210.34	1.556
210.43	1.552
210.53	1.548
210.62	1.544
210.72	1.539
210.81	1.535
210.91	1.531
211	1.526
211.1	1.522
211.19	1.518
211.29	1.514
211.67	1.494
212.35	1.464
213.02	1.434
213.71	1.404
214.4	1.379
215.09	1.355
215.78	1.338
216.48	1.321
217.19	1.301
217.9	1.284
218.61	1.269
219.33	1.254
220.06	1.239
220.79	1.226
221.52	1.211
222.26	1.201
223	1.188
223.75	1.171
224.5	1.158
225.26	1.145
226.03	1.126
226.79	1.113
227.57	1.096
228.35	1.083
229.13	1.066
229.92	1.053
230.72	1.034
231.52	1.021
232.33	1.001
233.14	0.984
233.96	0.969
234.78	0.95
235.61	0.933
236.45	0.911
237.23	0.898
238.14	0.879
238.99	0.86
239.85	0.845
240.72	0.826
241.59	0.809
242.47	0.794
243.35	0.783
244.24	0.77
245.14	0.761
246.05	0.753
246.96	0.744
247.88	0.74
248.8	0.734
249.73	0.731
250.67	0.729
251.62	0.725
252.44	0.722
253.53	0.723
254.5	0.729
255.47	0.736
256.72	0.752
257.67	0.768
258.52	0.786
259.47	0.805
260.42	0.822
261.47	0.843
262.42	0.864
263.55	0.888
264.6	0.918
265.65	0.946
266.72	0.971
267.79	1.001
268.87	1.029
269.96	1.059
271.06	1.085
272.16	1.113
273.28	1.139
274.4	1.164
275.54	1.192
276.68	1.216
277.83	1.237
279	1.265
280.17	1.286
281.35	1.308
282.54	1.329
283.75	1.349
284.96	1.368
286.18	1.387
287.42	1.406
288.66	1.424
289.92	1.439
291.18	1.458
292.46	1.471
293.75	1.484
295.05	1.494
296.36	1.505
297.68	1.511
299.02	1.52
300.36	1.529
301.72	1.533
303.1	1.539
304.48	1.541
305.88	1.541
307.29	1.539
308.71	1.533
310.15	1.529
311.6	1.518
313.06	1.503
314.54	1.49
316.03	1.477
317.53	1.456
319.05	1.43
320.59	1.404
322.14	1.372
323.7	1.336
325.28	1.304
326.87	1.263
328.48	1.209
330.11	1.158
331.75	1.098
333.41	1.034
334.15	0.993
334.92	0.951
335.88	0.902
336.78	0.851
337.62	0.802
338.49	0.751
339.75	0.689
340.66	0.65
341.59	0.609
342.79	0.558
343.73	0.517
