Uv/Vis Spectrum: Thiophene, 3-nitro-
Formula: C4H3NO2S
CAS: 822-84-4
Melting point: 74-75
Instrument: Beckman DB-G
Origin: INSTITUTE OF ENERGY PROBLEMS OF CHEMICAL PHYSICS, RAS
Wavelength (nm)	Logarithm epsilon
221.22	3.905
222.05	3.883
222.32	3.858
222.87	3.833
223.15	3.808
223.98	3.785
224.25	3.76
225.08	3.727
225.91	3.705
226.46	3.68
227.01	3.655
227.83	3.632
228.11	3.607
228.94	3.585
230.31	3.565
232.8	3.56
234.45	3.576
235.83	3.596
237.48	3.615
238.86	3.638
239.96	3.66
241.34	3.682
242.72	3.705
243.82	3.727
244.65	3.749
246.3	3.769
247.13	3.794
248.23	3.816
249.88	3.833
251.26	3.852
252.36	3.875
254.02	3.891
255.39	3.914
257.6	3.925
260.08	3.928
262.28	3.914
264.21	3.9
266.14	3.883
267.52	3.863
268.9	3.841
270.28	3.819
271.65	3.797
272.76	3.774
273.58	3.752
274.96	3.733
276.06	3.71
277.17	3.688
278.54	3.666
279.65	3.643
280.75	3.621
281.85	3.599
282.95	3.576
284.33	3.554
285.43	3.532
286.81	3.51
287.64	3.487
288.46	3.465
289.84	3.443
290.67	3.418
292.32	3.401
293.43	3.379
294.8	3.356
295.91	3.334
297.01	3.312
298.11	3.29
299.49	3.267
300.87	3.245
301.97	3.223
303.07	3.2
304.72	3.181
305.55	3.159
306.65	3.136
308.03	3.114
309.41	3.094
310.51	3.072
311.61	3.05
312.99	3.028
314.37	3.005
315.47	2.983
316.85	2.961
318.23	2.941
