Uv/Vis Spectrum: 1-Methoxyanthraquinone
Formula: C15H10O3
CAS: 82-39-3
Melting point: 171-173
Instrument: SF-16
Origin: INSTITUTE OF ENERGY PROBLEMS OF CHEMICAL PHYSICS, RAS
Wavelength (nm)	Logarithm epsilon
214.11	4.4
215.68	4.389
217.25	4.373
218.82	4.358
220.38	4.337
221.95	4.305
223.52	4.273
225.09	4.231
226.66	4.184
228.22	4.173
229.79	4.168
231.36	4.173
232.93	4.189
234.5	4.21
236.06	4.226
237.63	4.258
239.2	4.289
240.77	4.331
242.33	4.363
243.9	4.395
245.47	4.421
247.04	4.447
248.61	4.468
250.17	4.489
251.74	4.495
253.31	4.495
254.88	4.484
256.45	4.442
258.01	4.384
259.58	4.337
261.15	4.305
262.72	4.279
264.29	4.258
265.85	4.242
267.42	4.221
268.99	4.189
270.56	4.168
272.13	4.147
273.69	4.115
275.26	4.063
276.83	3.989
278.4	3.931
279.97	3.91
281.53	3.805
283.1	3.694
284.67	3.536
286.24	3.394
287.81	3.326
289.37	3.278
290.94	3.247
292.51	3.231
294.08	3.22
295.65	3.226
297.21	3.247
298.78	3.257
300.35	3.278
301.92	3.299
303.49	3.32
305.05	3.342
306.62	3.357
308.19	3.357
309.76	3.373
311.33	3.394
312.89	3.41
314.46	3.426
316.03	3.442
317.6	3.447
319.17	3.452
320.73	3.463
322.3	3.468
323.87	3.473
325.44	3.473
327	3.473
328.57	3.473
330.14	3.468
331.71	3.468
333.28	3.463
334.84	3.457
336.41	3.452
337.98	3.447
339.55	3.447
341.12	3.447
342.68	3.447
344.25	3.447
345.82	3.452
347.39	3.468
348.96	3.473
350.52	3.489
352.09	3.5
353.66	3.515
355.23	3.531
356.8	3.547
358.36	3.568
359.93	3.584
361.5	3.6
363.07	3.615
364.64	3.631
366.2	3.647
367.77	3.663
369.34	3.673
370.91	3.684
372.48	3.689
374.04	3.694
375.61	3.7
377.18	3.705
378.75	3.705
380.32	3.705
381.88	3.705
383.45	3.7
385.02	3.694
386.59	3.689
388.16	3.689
389.72	3.679
391.29	3.663
392.86	3.652
394.43	3.631
396	3.61
397.56	3.589
399.13	3.568
400.7	3.542
402.27	3.515
403.83	3.489
405.4	3.463
406.97	3.431
408.54	3.399
410.11	3.368
411.67	3.336
413.24	3.294
414.81	3.263
416.38	3.226
417.95	3.189
419.51	3.141
421.08	3.099
422.65	3.063
424.22	3.026
425.79	2.978
427.35	2.931
428.92	2.878
430.49	2.836
432.06	2.794
433.63	2.783
435.19	2.752
436.76	2.699
438.33	2.652
439.9	2.583
441.47	2.531
443.03	2.483
444.6	2.431
446.17	2.378
447.74	2.331
449.31	2.283
450.87	2.215
452.44	2.146
454.01	2.062
