Uv/Vis Spectrum: 1-Nitroanthraquinone
Formula: C14H7NO4
CAS: 82-34-8
Melting point: 231.5
Boiling point: 270/ 7 mm
Instrument: Beckman
Origin: INSTITUTE OF ENERGY PROBLEMS OF CHEMICAL PHYSICS, RAS
Wavelength (nm)	Logarithm epsilon
248.48	4.688
248.87	4.697
249.26	4.701
249.65	4.71
250.04	4.714
250.42	4.719
250.81	4.727
251.2	4.731
251.59	4.74
253.14	4.766
254.7	4.809
256.25	4.818
257.8	4.835
259.36	4.848
260.91	4.844
262.48	4.827
264.01	4.796
265.57	4.766
266.9	4.732
268.55	4.673
270.23	4.611
271.32	4.58
272.97	4.523
275.06	4.453
276.44	4.399
277.94	4.335
279.55	4.266
281.44	4.177
283.08	4.112
284.59	4.062
286.11	4.011
287.57	3.965
288.86	3.938
290.42	3.912
291.97	3.895
293.52	3.878
295.08	3.869
296.63	3.86
298.18	3.856
300.7	3.857
302.7	3.865
304.4	3.869
305.95	3.878
308.31	3.884
310.61	3.895
312.11	3.904
313.71	3.916
315.27	3.925
316.82	3.938
318.37	3.942
319.93	3.947
321.48	3.947
323.03	3.947
324.59	3.942
326.14	3.929
327.69	3.912
329.25	3.899
330.8	3.878
332.35	3.847
333.9	3.813
335.46	3.8
337.01	3.744
338.56	3.718
340.12	3.666
341.67	3.636
343.22	3.589
344.78	3.554
346.33	3.485
347.88	3.408
349.19	3.341
350.84	3.274
352.54	3.214
353.9	3.165
355.63	3.106
357.2	3.045
358.66	2.996
359.81	2.96
361.69	2.926
363.41	2.899
364.97	2.873
366.52	2.847
368.07	2.821
369.39	2.8
371.18	2.769
372.73	2.744
374.12	2.726
375.75	2.707
377.39	2.688
378.9	2.672
380.5	2.653
383.6	2.623
385.16	2.606
386.78	2.59
388.3	2.575
389.93	2.56
391.17	2.545
392.92	2.519
394.48	2.498
396.03	2.476
397.58	2.45
399.14	2.429
400.69	2.394
403.79	2.334
405.35	2.299
406.9	2.261
408.45	2.222
410.09	2.171
411.56	2.118
413.26	2.049
414.67	1.989
416.22	1.907
417.27	1.807
418.94	1.61
