Uv/Vis Spectrum: 9,10-Anthracenedione, 1-chloro-
Formula: C14H7ClO2
CAS: 82-44-0
Melting point: 161-163
Instrument: SF-16
Origin: INSTITUTE OF ENERGY PROBLEMS OF CHEMICAL PHYSICS, RAS
Wavelength (nm)	Logarithm epsilon
211.61	4.42
212.13	4.415
213.19	4.373
214.77	4.326
216.35	4.232
217.94	4.138
219.52	3.95
221.1	3.903
222.69	3.862
224.27	3.872
225.85	3.888
227.43	3.935
229.02	3.961
230.6	4.008
232.18	4.055
233.76	4.107
235.35	4.149
236.93	4.206
238.51	4.253
240.1	4.321
241.68	4.373
243.26	4.415
244.84	4.451
246.43	4.483
248.01	4.514
249.59	4.54
251.18	4.561
252.76	4.582
254.34	4.592
255.92	4.582
257.51	4.545
259.09	4.43
260.67	4.295
262.25	4.227
263.84	4.185
265.42	4.143
267	4.123
268.59	4.107
270.17	4.091
271.75	4.07
273.33	4.003
274.92	3.93
276.5	3.846
278.08	3.747
279.66	3.57
281.25	3.418
282.83	3.324
284.41	3.241
286	3.189
287.58	3.173
289.16	3.178
290.74	3.194
292.33	3.199
293.91	3.225
295.49	3.251
298.66	3.298
300.24	3.324
301.82	3.35
303.41	3.377
304.99	3.408
306.57	3.423
308.15	3.45
309.74	3.476
311.32	3.497
312.9	3.523
314.48	3.554
316.07	3.59
317.65	3.622
319.23	3.643
320.82	3.658
322.4	3.674
323.98	3.695
325.56	3.705
327.15	3.71
328.73	3.721
330.31	3.726
331.89	3.726
333.48	3.726
335.06	3.726
336.64	3.721
338.23	3.716
339.81	3.71
341.39	3.7
342.97	3.684
344.56	3.658
346.14	3.632
347.72	3.611
349.3	3.575
350.89	3.549
352.47	3.502
354.05	3.46
355.64	3.403
357.22	3.35
358.8	3.298
360.38	3.262
361.97	3.225
363.55	3.137
365.13	3.043
366.71	2.959
368.3	2.876
369.88	2.777
371.46	2.667
373.05	2.568
374.63	2.516
376.21	2.422
377.79	2.343
379.38	2.25
380.96	2.182
382.54	2.109
