Uv/Vis Spectrum: Bicyclo[2.2.1]hexa-2,5-diene, 2,3-dicarbonitrile-
Formula: C9H6N2
CAS: 825-24-1
Melting point: 48
Instrument: Hitachi 340
Origin: INSTITUTE OF ENERGY PROBLEMS OF CHEMICAL PHYSICS, RAS
Wavelength (nm)	Logarithm epsilon
219.63	3.182
219.73	3.184
219.84	3.184
219.95	3.185
220.05	3.185
220.16	3.185
220.26	3.187
220.37	3.187
220.47	3.188
220.58	3.188
220.69	3.19
220.79	3.19
220.9	3.19
221	3.191
221.11	3.191
221.21	3.193
221.53	3.191
221.85	3.194
222.17	3.198
222.48	3.201
222.8	3.206
223.12	3.21
223.44	3.214
223.75	3.219
224.07	3.226
224.39	3.233
224.7	3.24
225.02	3.246
225.34	3.254
225.66	3.26
225.97	3.266
226.29	3.272
226.61	3.28
226.92	3.287
227.24	3.294
227.56	3.302
227.88	3.311
228.19	3.318
228.51	3.327
228.83	3.337
229.15	3.345
229.46	3.355
229.78	3.362
230.1	3.374
230.41	3.38
230.73	3.39
231.05	3.399
231.37	3.408
231.68	3.417
232	3.428
232.32	3.436
232.63	3.447
232.95	3.456
233.27	3.467
233.59	3.477
233.9	3.488
234.22	3.494
234.54	3.506
234.85	3.514
235.17	3.523
235.49	3.532
235.81	3.541
236.12	3.548
236.44	3.555
236.76	3.564
237.08	3.571
237.39	3.58
237.71	3.589
238.03	3.595
238.34	3.601
238.66	3.609
238.98	3.616
239.3	3.623
239.61	3.629
239.93	3.636
240.25	3.64
240.56	3.647
240.88	3.653
241.2	3.659
241.52	3.665
241.83	3.673
242.15	3.678
242.47	3.683
242.79	3.689
243.1	3.695
243.42	3.7
243.74	3.706
244.05	3.71
244.37	3.715
244.69	3.718
245.01	3.722
245.32	3.726
245.64	3.73
245.96	3.734
246.27	3.737
246.59	3.741
246.91	3.745
247.23	3.748
247.54	3.749
247.86	3.755
248.18	3.757
248.5	3.76
248.81	3.763
249.13	3.767
249.45	3.77
249.76	3.774
250.08	3.777
250.4	3.779
250.72	3.781
251.03	3.783
251.35	3.784
251.67	3.784
251.98	3.784
252.3	3.783
252.62	3.782
252.94	3.781
253.25	3.778
253.57	3.775
253.89	3.772
254.21	3.769
254.52	3.765
254.84	3.761
255.16	3.756
255.47	3.747
255.79	3.74
256.11	3.735
256.43	3.731
256.74	3.725
257.06	3.72
257.38	3.717
257.69	3.711
258.01	3.706
258.33	3.704
258.65	3.7
258.96	3.697
259.28	3.694
259.6	3.69
259.91	3.688
260.23	3.685
260.55	3.682
260.87	3.677
261.18	3.673
261.5	3.667
261.82	3.663
262.14	3.656
262.45	3.648
262.77	3.64
263.09	3.628
263.4	3.613
263.72	3.59
264.04	3.573
264.36	3.559
264.67	3.534
264.99	3.515
265.31	3.487
265.62	3.465
265.94	3.44
266.26	3.404
266.58	3.38
266.89	3.345
267.21	3.314
267.53	3.281
267.85	3.233
268.16	3.187
268.48	3.135
268.8	3.097
269.11	3.073
269.43	3.053
269.75	3.03
270.07	3.006
270.32	2.983
270.6	2.963
270.92	2.938
271.32	2.915
271.62	2.899
271.97	2.883
272.29	2.871
272.8	2.855
273.31	2.842
273.87	2.832
274.54	2.823
275.56	2.819
276.53	2.819
277.47	2.826
278.42	2.833
279.37	2.839
280.32	2.846
281.27	2.849
282.3	2.852
283.21	2.855
284.13	2.855
285.02	2.858
285.99	2.858
286.96	2.858
287.94	2.859
288.89	2.859
289.84	2.859
290.77	2.858
291.74	2.858
292.71	2.857
293.65	2.855
294.52	2.854
295.61	2.85
296.46	2.846
297.36	2.841
298.4	2.836
299.36	2.829
300.31	2.823
301.26	2.816
302.02	2.81
303.06	2.802
304.01	2.794
305.05	2.784
305.81	2.776
306.74	2.762
307.65	2.746
308.45	2.732
309.29	2.714
310.14	2.701
310.99	2.683
311.83	2.663
312.61	2.647
313.52	2.622
314.37	2.6
315.22	2.57
316.17	2.552
317.01	2.532
317.86	2.505
318.81	2.483
319.68	2.459
320.61	2.435
321.48	2.412
322.38	2.384
323.25	2.353
324.2	2.322
325.16	2.288
326.03	2.257
326.88	2.231
327.78	2.201
328.86	2.167
329.76	2.142
330.66	2.113
331.43	2.086
332.52	2.053
333.57	2.014
334.56	1.984
335.49	1.945
336.47	1.898
337.42	1.837
338.37	1.765
