Uv/Vis Spectrum: 4-Piperidinone, 2,2,6,6-tetramethyl-
Formula: C9H17NO
CAS: 826-36-8
Melting point: 90.5
Instrument: SF-16
Origin: INSTITUTE OF ENERGY PROBLEMS OF CHEMICAL PHYSICS, RAS
Wavelength (nm)	Logarithm epsilon
215.36	3.12
220.3	3.125
225.24	3.115
229.63	3.094
232.37	3.057
235.12	3.02
237.31	2.978
239.5	2.935
241.7	2.893
243.35	2.851
245.54	2.809
247.73	2.766
249.38	2.724
251.03	2.682
252.67	2.64
254.32	2.598
255.96	2.555
257.61	2.513
259.26	2.466
260.9	2.418
262.55	2.371
264.19	2.323
265.84	2.281
268.04	2.239
270.23	2.196
272.97	2.159
275.72	2.123
278.46	2.086
