Uv/Vis Spectrum: 1,3,5-Triazine-2,4,6(1H,3H,5H)-trione, 1,3,5-trimethyl-
Formula: C6H9N3O3
CAS: 827-16-7
Melting point: 178-178.5
Instrument: Unicam SP 500
Origin: INSTITUTE OF ENERGY PROBLEMS OF CHEMICAL PHYSICS, RAS
Wavelength (nm)	Logarithm epsilon
192.13	4.283
192.21	4.279
192.29	4.275
192.37	4.268
192.45	4.264
192.53	4.26
192.61	4.253
192.69	4.249
192.77	4.243
192.85	4.238
192.93	4.234
193.09	4.223
193.58	4.185
194.06	4.145
194.55	4.106
195.04	4.066
195.53	4.031
196.03	3.999
196.53	3.963
197.03	3.931
197.53	3.899
198.04	3.869
198.55	3.839
199.06	3.814
199.57	3.786
200.09	3.754
200.61	3.724
201.13	3.697
201.65	3.669
202.18	3.641
202.71	3.62
203.24	3.598
203.78	3.577
204.32	3.554
204.86	3.528
205.4	3.5
205.95	3.47
206.5	3.443
207.05	3.415
207.61	3.387
208.17	3.362
208.73	3.332
209.29	3.3
209.86	3.272
210.43	3.242
211.01	3.214
211.58	3.18
212.16	3.138
212.75	3.086
213.34	3.033
213.93	2.967
214.52	2.903
215.12	2.847
215.72	2.779
216.32	2.709
216.93	2.636
217.54	2.555
218.15	2.47
218.77	2.38
219.39	2.299
220.01	2.207
220.64	2.12
221.27	2.026
221.91	1.934
222.54	1.832
223.19	1.736
223.83	1.642
224.48	1.546
225.14	1.448
225.79	1.371
226.45	1.269
227.12	1.164
