Uv/Vis Spectrum: Benzene, cyclohexyl-
Formula: C12H16
CAS: 827-52-1
Melting point: 6.7
Boiling point: 95/ 5 mm
Instrument: unknown
Origin: INSTITUTE OF ENERGY PROBLEMS OF CHEMICAL PHYSICS, RAS
Wavelength (nm)	Logarithm epsilon
227.61	1.362
227.95	1.34
228.22	1.32
228.56	1.301
229.01	1.289
229.47	1.284
229.85	1.284
230.25	1.287
230.61	1.294
230.97	1.308
231.25	1.324
231.38	1.332
231.56	1.343
231.75	1.354
232.13	1.374
232.5	1.395
232.85	1.414
233.21	1.434
233.57	1.454
233.91	1.473
234.25	1.491
234.59	1.514
234.93	1.535
235.26	1.556
235.6	1.574
235.94	1.59
236.28	1.608
236.62	1.622
236.95	1.634
237.29	1.643
237.67	1.653
238.01	1.663
238.39	1.675
238.73	1.686
239.08	1.704
239.37	1.722
239.66	1.742
239.91	1.761
240.21	1.78
240.51	1.798
240.76	1.817
241.01	1.834
241.31	1.847
241.65	1.86
241.99	1.872
242.32	1.882
242.66	1.889
243	1.896
243.38	1.898
243.72	1.905
244.06	1.914
244.35	1.927
244.65	1.938
244.9	1.952
245.16	1.966
245.37	1.98
245.58	1.995
245.79	2.007
246.05	2.02
246.21	2.033
246.43	2.046
246.64	2.058
246.85	2.07
247.1	2.079
247.4	2.087
247.74	2.093
248.12	2.093
248.5	2.091
248.88	2.088
249.26	2.085
249.6	2.091
249.85	2.102
250.02	2.113
250.15	2.125
250.32	2.136
250.44	2.147
250.57	2.157
250.74	2.167
250.87	2.177
250.99	2.186
251.16	2.196
251.29	2.205
251.5	2.214
251.71	2.223
251.92	2.231
252.18	2.238
252.47	2.243
252.81	2.246
253.19	2.247
253.57	2.245
253.91	2.241
254.25	2.235
254.59	2.23
254.92	2.225
255.26	2.219
255.6	2.215
255.98	2.213
256.28	2.219
256.49	2.228
256.62	2.238
256.7	2.247
256.74	2.256
256.83	2.265
256.91	2.274
257	2.282
257.17	2.29
257.29	2.298
257.42	2.306
257.55	2.314
257.8	2.32
258.05	2.325
258.43	2.327
258.73	2.322
258.98	2.316
259.24	2.31
259.62	2.307
259.91	2.313
260.17	2.319
260.42	2.324
260.67	2.325
260.87	2.322
261.06	2.316
261.18	2.308
261.35	2.29
261.52	2.267
261.69	2.247
261.86	2.225
262.03	2.204
262.2	2.186
262.37	2.169
262.54	2.161
262.7	2.158
262.87	2.161
263.04	2.168
263.21	2.178
263.38	2.185
263.55	2.19
263.72	2.191
263.89	2.19
264.06	2.184
264.23	2.179
264.4	2.168
264.56	2.161
264.73	2.151
264.9	2.141
265.07	2.131
265.24	2.121
265.41	2.11
265.58	2.102
265.71	2.094
265.92	2.088
266.09	2.09
266.26	2.096
266.43	2.109
266.59	2.128
266.76	2.167
266.93	2.193
267.1	2.2
267.27	2.201
267.44	2.201
267.61	2.201
267.78	2.196
267.95	2.179
268.12	2.143
268.29	2.104
268.45	2.056
268.62	2.007
268.79	1.956
268.96	1.907
269.13	1.849
269.3	1.801
269.47	1.752
269.64	1.701
269.81	1.655
269.98	1.626
270.15	1.585
270.32	1.551
270.48	1.514
270.65	1.485
270.82	1.454
270.99	1.421
271.16	1.385
271.33	1.354
271.5	1.32
271.67	1.275
271.84	1.255
272.01	1.213
272.18	1.166
272.34	1.14
272.51	1.099
272.68	1.053
272.85	1.002
273.02	0.964
273.21	0.919
273.34	0.887
273.52	0.844
273.7	0.797
273.87	0.767
274.01	0.737
274.21	0.7
