Uv/Vis Spectrum: 1,2-Acenaphthylenedione
Formula: C12H6O2
CAS: 82-86-0
Melting point: 261
Boiling point: sub.
Instrument: unknown
Origin: INSTITUTE OF ENERGY PROBLEMS OF CHEMICAL PHYSICS, RAS
Wavelength (nm)	Logarithm epsilon
210.5	4.351
211.81	4.367
213.13	4.384
214.6	4.392
216.08	4.405
217.39	4.421
218.71	4.438
220.07	4.447
221.24	4.455
222.57	4.463
223.82	4.468
225.15	4.47
226.79	4.467
228.44	4.462
230.08	4.447
231.67	4.425
232.98	4.405
233.96	4.38
234.95	4.351
235.7	4.323
236.75	4.293
237.57	4.264
238.44	4.232
239.22	4.202
240.04	4.168
240.86	4.139
241.51	4.106
242.33	4.073
243.15	4.04
243.97	4.007
244.77	3.978
245.45	3.945
246.34	3.914
247.09	3.883
247.75	3.849
248.4	3.816
249.22	3.783
249.88	3.75
250.7	3.721
251.36	3.688
252.18	3.659
253	3.626
253.65	3.592
254.47	3.563
255.25	3.531
255.95	3.501
256.73	3.472
257.59	3.439
258.41	3.41
259.4	3.381
260.17	3.357
261.19	3.335
262.75	3.315
264.39	3.3
265.96	3.298
267.44	3.298
268.85	3.305
270.23	3.315
271.7	3.327
273.02	3.34
274.33	3.356
275.64	3.373
276.79	3.394
278.1	3.41
279.25	3.431
280.4	3.452
281.71	3.472
282.84	3.497
284.01	3.518
285.16	3.539
286.31	3.559
287.62	3.576
288.77	3.597
289.92	3.617
291.23	3.634
292.54	3.655
293.85	3.667
295.33	3.68
296.64	3.696
297.96	3.709
299.27	3.721
300.58	3.733
301.89	3.746
303.21	3.758
304.68	3.767
306	3.779
307.47	3.787
308.78	3.8
310.26	3.808
311.74	3.816
313.05	3.829
314.53	3.837
315.9	3.844
317.32	3.849
318.79	3.858
320.2	3.863
321.75	3.866
323.22	3.87
324.7	3.883
326.18	3.887
327.65	3.883
329.13	3.874
330.61	3.862
332.24	3.856
333.65	3.86
334.87	3.874
336.35	3.878
337.79	3.874
339.14	3.858
340.45	3.837
341.76	3.816
342.91	3.796
343.9	3.767
344.72	3.738
345.7	3.713
346.52	3.684
347.34	3.651
348	3.617
348.66	3.584
349.48	3.551
349.8	3.514
350.46	3.481
350.79	3.443
351.28	3.41
351.61	3.373
351.94	3.336
352.43	3.298
352.76	3.261
353.09	3.224
353.58	3.186
353.91	3.149
354.4	3.116
354.56	3.079
354.89	3.041
355.38	3.008
355.55	2.971
356.04	2.934
356.37	2.896
356.7	2.859
357.19	2.826
357.35	2.789
357.84	2.755
358.17	2.718
358.67	2.685
358.99	2.648
359.32	2.61
359.65	2.573
360.14	2.536
360.31	2.499
360.8	2.465
361.13	2.428
361.62	2.391
361.78	2.353
362.27	2.316
362.6	2.279
363.1	2.246
363.26	2.208
363.75	2.175
364.08	2.138
364.57	2.105
364.74	2.068
