Uv/Vis Spectrum: 2,3,6-Trimethylnaphthalene
Formula: C13H14
CAS: 829-26-5
Melting point: 105.5
Boiling point: 138-142/ 13 mm
Instrument: unknown
Origin: INSTITUTE OF ENERGY PROBLEMS OF CHEMICAL PHYSICS, RAS
Wavelength (nm)	Logarithm epsilon
294.16	2.962
294.22	2.959
294.28	2.953
294.35	2.949
294.41	2.945
294.47	2.942
294.66	2.929
294.85	2.917
295.04	2.904
295.23	2.893
295.42	2.876
295.61	2.861
295.8	2.842
295.98	2.821
296.17	2.803
296.36	2.786
296.55	2.769
296.74	2.75
296.93	2.733
297.12	2.716
297.31	2.693
297.5	2.675
297.69	2.65
297.87	2.628
298.06	2.607
298.25	2.588
298.44	2.569
298.63	2.554
298.82	2.532
299.01	2.515
299.2	2.503
299.39	2.492
299.58	2.485
299.76	2.475
299.95	2.468
300.14	2.458
300.33	2.451
300.52	2.443
300.71	2.438
300.9	2.43
301.09	2.424
301.28	2.417
301.46	2.411
301.65	2.404
301.84	2.398
302.03	2.391
302.22	2.385
302.41	2.379
302.6	2.372
302.79	2.366
302.98	2.361
303.17	2.355
303.35	2.349
303.54	2.342
303.73	2.336
303.92	2.33
304.11	2.329
304.3	2.323
304.49	2.321
304.68	2.319
304.87	2.317
305.06	2.315
305.24	2.315
305.43	2.317
305.62	2.317
305.81	2.319
306	2.323
306.19	2.334
306.38	2.342
306.57	2.349
306.76	2.361
306.95	2.376
307.13	2.398
307.32	2.428
307.51	2.458
307.7	2.487
307.89	2.507
308.08	2.522
308.27	2.534
308.46	2.541
308.65	2.543
308.84	2.539
309.02	2.526
309.21	2.509
309.4	2.492
309.59	2.479
309.78	2.466
309.97	2.445
310.16	2.421
310.35	2.398
310.54	2.379
310.72	2.361
310.91	2.344
311.1	2.327
311.29	2.31
311.48	2.295
311.67	2.28
311.86	2.265
312.05	2.253
312.24	2.242
312.43	2.229
312.61	2.219
312.8	2.212
312.99	2.208
313.18	2.206
313.37	2.208
313.56	2.21
313.75	2.216
313.94	2.219
314.13	2.225
314.32	2.231
314.5	2.235
314.69	2.238
314.88	2.242
315.07	2.242
315.26	2.242
315.45	2.24
315.64	2.236
315.78	2.232
315.88	2.225
315.94	2.218
316.02	2.212
316.21	2.208
316.39	2.206
316.57	2.205
316.77	2.205
316.96	2.204
317.16	2.205
317.34	2.206
317.54	2.208
317.72	2.209
317.91	2.21
318.1	2.212
318.28	2.213
318.45	2.214
318.62	2.214
318.74	2.214
318.85	2.212
319.02	2.208
319.21	2.204
319.42	2.201
319.61	2.199
319.8	2.199
319.99	2.199
320.09	2.201
320.17	2.204
320.27	2.211
320.37	2.219
320.47	2.23
320.56	2.24
320.65	2.252
320.74	2.263
320.81	2.276
320.87	2.289
320.99	2.317
321.11	2.342
321.24	2.372
321.37	2.396
321.5	2.428
321.62	2.462
321.75	2.481
321.87	2.511
322	2.53
322.13	2.55
322.25	2.566
322.38	2.577
322.5	2.584
322.63	2.59
322.76	2.592
322.88	2.594
323.01	2.592
323.13	2.59
323.26	2.586
323.39	2.577
323.51	2.564
323.64	2.545
323.76	2.53
323.89	2.498
324.02	2.47
324.14	2.443
324.27	2.417
324.39	2.391
324.47	2.371
324.58	2.345
324.71	2.315
324.78	2.292
324.86	2.268
324.96	2.241
325.06	2.215
325.28	2.169
325.47	2.135
