Uv/Vis Spectrum: Pentafluorobenzenesulfonyl chloride
Formula: C6ClF5O2S
CAS: 832-53-1
Boiling point: 81,0/5mm
Instrument: SFD-2
Origin: INSTITUTE OF ENERGY PROBLEMS OF CHEMICAL PHYSICS, RAS
Wavelength (nm)	Logarithm epsilon
246.81	2.819
247.33	2.819
247.85	2.819
248.37	2.808
249.93	2.744
251.49	2.696
253.05	2.627
254.61	2.568
256.17	2.509
257.73	2.488
259.29	2.488
260.85	2.493
262.41	2.509
263.97	2.536
265.53	2.563
267.09	2.595
268.65	2.632
270.21	2.669
271.77	2.691
273.33	2.701
274.89	2.733
276.45	2.755
278.01	2.765
279.57	2.76
281.13	2.755
282.7	2.744
284.26	2.723
285.82	2.712
287.38	2.691
288.94	2.632
290.5	2.541
292.06	2.429
293.62	2.301
295.18	2.205
296.74	2.115
298.3	1.997
299.86	1.864
301.42	1.773
302.98	1.672
304.54	1.576
306.1	1.341
307.66	1.203
309.22	1.133
310.78	1.075
312.34	0.995
313.9	0.877
315.46	0.771
317.02	0.717
318.58	0.701
320.14	0.696
321.7	0.701
323.26	0.712
324.82	0.717
326.38	0.733
327.94	0.749
329.5	0.771
331.06	0.803
332.62	0.829
334.18	0.856
335.74	0.893
337.3	0.92
338.87	0.941
340.43	0.963
341.99	0.979
343.55	1
345.11	1.011
346.67	1.027
348.23	1.027
349.79	1.032
351.35	1.027
352.91	1.027
354.47	1.016
356.03	1.011
357.59	1
359.15	0.984
360.71	0.963
362.27	0.947
363.83	0.931
365.39	0.915
366.95	0.883
368.51	0.84
370.07	0.792
371.63	0.749
373.19	0.701
374.75	0.675
376.31	0.648
