Uv/Vis Spectrum: 1-Methylphenanthrene
Formula: C15H12
CAS: 832-69-9
Melting point: 122-123
Instrument: Beckman DK2
Origin: INSTITUTE OF ENERGY PROBLEMS OF CHEMICAL PHYSICS, RAS
Wavelength (nm)	Logarithm epsilon
360.56	1.45925
360.264	1.50157
359.689	1.50992
359.401	1.5416
358.822	1.56084
358.528	1.60519
357.954	1.61987
357.665	1.65789
357.084	1.68955
356.792	1.73416
356.212	1.76785
355.91	1.82919
355.315	1.89051
354.969	2.02359
354.394	2.05957
354.101	2.11254
353.538	2.13356
353.241	2.19489
352.661	2.24557
352.343	2.3429
351.767	2.39358
351.466	2.46557
350.905	2.49723
350.645	2.50559
349.852	2.50758
349.086	2.47181
348.872	2.41045
348.814	2.50348
348.396	2.3174
348.147	2.3151
347.713	2.15665
347.463	2.15664
346.449	2.13758
345.921	2.13959
345.396	2.1416
345.129	2.17555
344.589	2.20519
344.306	2.26627
343.77	2.29388
343.503	2.3319
342.978	2.34455
342.723	2.36584
341.962	2.37214
341.446	2.37846
340.968	2.3721
340.475	2.34445
340.237	2.34241
339.749	2.30842
339.008	2.30433
338.026	2.31265
337.518	2.32531
337.269	2.34862
336.762	2.3633
336.507	2.39929
336.002	2.41397
335.741	2.46263
335.23	2.49227
334.974	2.53459
334.481	2.5366
334.247	2.5409
333.526	2.54289
333.297	2.54288
332.601	2.50685
332.374	2.50482
331.929	2.43508
331.702	2.43279
331.252	2.37573
331.027	2.3737
330.324	2.36733
329.619	2.3716
329.141	2.37361
328.913	2.38197
328.436	2.38625
328.208	2.39689
327.731	2.40523
326.125	2.41353
325.66	2.41148
325.204	2.39447
324.986	2.39446
324.558	2.37974
324.314	2.3777
323.888	2.36272
323.644	2.36271
322.974	2.35431
322.089	2.35199
321.631	2.35628
321.41	2.37122
320.952	2.3816
320.73	2.39857
320.274	2.40691
320.053	2.42592
319.598	2.43654
319.373	2.46416
318.92	2.47453
318.708	2.47883
318.052	2.48083
317.2	2.46609
316.993	2.46405
316.353	2.44906
315.48	2.44268
314.842	2.43631
313.361	2.44257
312.93	2.44458
312.52	2.45521
312.089	2.46152
311.882	2.47216
311.452	2.4805
311.245	2.49317
310.813	2.5081
310.606	2.52279
310.178	2.53342
309.967	2.55876
309.535	2.57978
309.323	2.60943
308.893	2.63045
308.679	2.66643
308.251	2.68771
308.034	2.73003
307.603	2.7617
307.38	2.81872
306.951	2.84836
306.713	2.9391
306.279	2.98572
306.031	3.09979
305.585	3.17379
305.354	3.25414
304.922	3.30279
304.683	3.40215
304.258	3.44015
304.028	3.52253
303.601	3.56915
303.372	3.65153
302.947	3.69587
302.724	3.76785
302.323	3.8165
302.075	3.89457
301.682	3.92852
301.445	3.98352
301.053	4.02152
300.817	4.07652
300.431	4.10388
300.202	4.1462
299.827	4.15252
299.419	4.18215
298.673	4.14814
298.466	4.1461
298.116	4.10806
297.91	4.10602
297.57	4.04871
297.365	4.04667
297.015	4.01293
296.81	4.01292
296.463	3.9769
296.26	3.97461
295.908	3.95152
295.727	3.95151
295.354	3.92817
295.174	3.92816
294.805	3.89645
294.627	3.89416
294.265	3.85206
294.086	3.85205
293.715	3.83301
293.161	3.82867
292.229	3.83496
292.048	3.84559
291.671	3.85394
291.489	3.8666
291.112	3.87723
290.929	3.89623
290.554	3.90457
290.372	3.92358
289.997	3.93623
289.815	3.95523
289.463	3.96789
289.261	3.98486
288.907	4.00385
288.705	4.02285
288.357	4.03348
288.158	4.04614
287.812	4.05449
287.616	4.06309
287.081	4.06712
286.215	4.0587
286.025	4.05666
285.7	4.02698
285.349	4.00998
285.182	4.00794
284.831	3.99321
284.664	3.99092
284.316	3.97392
284.15	3.97188
283.803	3.95487
283.637	3.95283
282.961	3.93378
282.613	3.92742
282.263	3.92537
281.074	3.92733
280.908	3.93365
280.56	3.93997
280.392	3.95263
280.044	3.96098
279.877	3.97364
279.529	3.98427
279.363	3.99693
279.017	4.00553
278.851	4.02022
278.506	4.02857
278.341	4.04123
277.999	4.04755
277.835	4.05818
277.494	4.0645
277.331	4.07514
276.993	4.07714
276.497	4.08142
275.849	4.07504
275.692	4.07503
275.363	4.06234
275.207	4.06233
274.88	4.04963
274.724	4.04734
274.397	4.03692
274.069	4.03259
273.28	4.02189
271.686	4.02813
271.511	4.03673
271.204	4.04508
271.029	4.05571
270.723	4.06406
270.549	4.07241
270.243	4.08304
270.069	4.09367
269.764	4.1043
269.591	4.11468
269.288	4.12531
269.115	4.13595
268.813	4.14429
268.641	4.15493
268.34	4.16327
268.169	4.17391
267.868	4.18453
267.698	4.19491
267.398	4.20554
267.247	4.21618
266.93	4.22655
266.779	4.23719
266.464	4.24553
266.313	4.25617
265.999	4.26476
265.849	4.27515
265.535	4.28577
265.385	4.29844
265.073	4.30678
264.924	4.31742
264.614	4.32374
264.466	4.33437
264.156	4.34272
264.008	4.35538
263.699	4.36398
263.552	4.37436
263.244	4.38296
263.097	4.39334
262.791	4.39966
262.644	4.41232
262.34	4.41864
262.194	4.42928
261.889	4.43762
261.743	4.45054
261.44	4.45888
261.295	4.46952
260.992	4.47989
260.846	4.49484
260.545	4.50318
260.399	4.51787
260.099	4.52647
259.954	4.54116
259.654	4.55179
259.511	4.56445
259.211	4.57711
259.067	4.5918
258.769	4.60445
258.625	4.62143
258.328	4.63205
258.183	4.65106
257.887	4.66371
257.744	4.68068
257.449	4.69106
257.306	4.70803
257.029	4.71866
256.871	4.73335
256.595	4.74397
256.438	4.75461
256.163	4.76498
256.01	4.76928
255.738	4.77129
255.029	4.77757
254.61	4.77551
254.327	4.77346
254.062	4.76482
253.913	4.76278
253.504	4.74374
253.372	4.7417
253.094	4.72901
252.962	4.729
252.685	4.71833
252.423	4.714
251.739	4.69696
251.332	4.69287
251.071	4.69285
250.115	4.68847
249.454	4.68842
247.73	4.69031
247.067	4.6862
246.55	4.68185
246.408	4.68184
246.16	4.67548
245.773	4.66277
245.633	4.66276
245.387	4.65209
245.247	4.65208
245.003	4.63736
244.864	4.63735
244.622	4.61831
244.483	4.6183
244.242	4.59927
244.104	4.59698
243.863	4.58023
243.726	4.57793
243.484	4.56524
243.362	4.5632
243.108	4.54619
242.986	4.54415
242.732	4.52918
242.611	4.52714
