Uv/Vis Spectrum: Phenanthrene, 4-methyl-
Formula: C15H12
CAS: 832-64-4
Melting point: 52-53
Instrument: Beckmann DK 2
Origin: INSTITUTE OF ENERGY PROBLEMS OF CHEMICAL PHYSICS, RAS
Wavelength (nm)	Logarithm epsilon
220.98	4.202
222.46	4.225
224.17	4.225
225.04	4.193
225.8	4.159
226.79	4.125
228.46	4.11
229.58	4.142
230.26	4.179
231.06	4.215
231.87	4.249
232.56	4.285
233.38	4.321
234.2	4.358
234.91	4.396
235.62	4.435
236.46	4.471
237.3	4.507
238.03	4.543
238.89	4.58
239.75	4.616
240.49	4.654
241.36	4.688
242.49	4.723
244.02	4.75
245.56	4.78
246.99	4.812
248.44	4.844
249.91	4.874
250.18	4.878
250.45	4.885
250.71	4.889
250.98	4.895
251.26	4.893
251.53	4.891
251.8	4.889
252.07	4.887
252.34	4.881
252.62	4.874
252.89	4.861
253.17	4.849
253.44	4.838
253.72	4.825
254	4.806
254.27	4.784
254.55	4.772
254.83	4.75
255.11	4.727
255.39	4.703
255.67	4.682
255.95	4.659
256.23	4.639
256.51	4.605
256.8	4.578
257.08	4.558
257.36	4.539
257.65	4.52
257.93	4.509
258.22	4.507
258.51	4.479
258.79	4.452
259.08	4.452
259.37	4.452
259.66	4.445
259.95	4.439
260.24	4.432
260.53	4.424
260.82	4.42
261.12	4.413
261.41	4.409
261.7	4.4
262	4.392
262.29	4.381
262.59	4.375
262.88	4.36
263.18	4.347
263.48	4.334
263.78	4.324
264.08	4.313
264.38	4.3
264.68	4.287
264.98	4.27
265.28	4.257
265.58	4.245
265.88	4.228
266.19	4.217
266.49	4.198
266.8	4.185
267.1	4.176
267.41	4.164
267.72	4.144
268.03	4.132
268.34	4.119
268.65	4.104
268.96	4.08
269.27	4.061
269.58	4.055
269.89	4.038
270.2	4.023
270.52	4.014
270.83	4.004
271.15	3.999
271.46	3.993
271.78	3.989
272.1	3.984
272.42	3.984
272.73	3.989
273.05	3.995
273.38	3.999
273.7	4.006
274.02	4.016
274.34	4.023
274.66	4.031
274.97	4.035
275.31	4.039
275.64	4.041
275.97	4.042
276.27	4.042
276.61	4.042
276.95	4.04
277.28	4.036
277.61	4.029
277.94	4.018
278.27	4.01
278.61	4.004
278.94	3.995
279.28	3.984
279.61	3.974
279.95	3.957
280.28	3.948
280.62	3.94
280.96	3.933
281.3	3.927
281.64	3.922
281.98	3.922
282.28	3.936
282.67	3.948
283.01	3.965
283.35	3.978
283.7	3.991
284.04	4.008
284.39	4.018
284.74	4.029
285.05	4.037
285.38	4.041
285.77	4.048
286.1	4.051
286.48	4.052
286.86	4.045
287.19	4.038
287.55	4.029
287.91	4.021
288.27	4.013
288.62	4.004
288.98	3.989
289.34	3.967
289.7	3.948
290.05	3.932
290.42	3.916
290.78	3.905
291.17	3.897
291.51	3.89
291.88	3.888
292.24	3.888
292.61	3.89
293	3.899
293.35	3.912
293.72	3.92
294.12	3.942
294.47	3.965
294.83	3.986
295.23	4.007
295.58	4.031
295.96	4.05
296.33	4.074
296.66	4.092
297.01	4.107
297.37	4.128
297.78	4.147
298.23	4.167
298.61	4.164
299	4.138
299.37	4.094
300.15	3.99
301.21	3.817
302.33	3.628
303.5	3.461
305.15	3.209
306.65	2.995
307.95	2.818
309.12	2.672
310.56	2.538
310.94	2.506
311.39	2.464
311.81	2.431
312.22	2.403
312.64	2.382
313.06	2.375
313.48	2.371
313.91	2.371
314.33	2.371
314.75	2.373
315.18	2.38
315.61	2.39
316.04	2.401
316.47	2.427
316.9	2.437
317.33	2.45
317.76	2.459
318.2	2.461
318.63	2.461
319.07	2.454
319.5	2.452
319.94	2.446
320.38	2.422
320.83	2.397
321.27	2.384
321.71	2.369
322.16	2.354
322.59	2.344
323.02	2.333
323.5	2.331
323.95	2.331
324.4	2.335
324.85	2.341
325.31	2.356
325.76	2.373
326.18	2.387
326.68	2.403
327.13	2.418
327.59	2.427
328.06	2.427
328.52	2.418
328.98	2.405
329.45	2.399
329.91	2.397
330.38	2.399
330.85	2.401
331.32	2.41
331.9	2.448
332.5	2.515
332.98	2.589
333.46	2.634
333.96	2.651
334.57	2.653
335.02	2.637
335.38	2.617
335.86	2.574
336.74	2.481
337.84	2.387
339.04	2.31
339.71	2.289
340.38	2.291
340.84	2.321
341.28	2.369
341.78	2.388
342.28	2.393
342.78	2.393
343.32	2.381
343.79	2.365
344.3	2.333
344.91	2.283
345.79	2.237
346.48	2.222
347.12	2.247
347.77	2.348
348.59	2.492
349.23	2.588
349.73	2.655
350.23	2.676
350.84	2.665
351.31	2.646
351.84	2.597
352.36	2.465
352.86	2.333
353.5	2.174
354.27	1.961
355.09	1.675
356.16	1.427
357.19	1.214
358.07	1.082
