Uv/Vis Spectrum: 1-Indanone
Formula: C9H8O
CAS: 83-33-0
Melting point: 42
Boiling point: 243; 129(12)
Instrument: Zeiss MM12 or PMQ II
Origin: INSTITUTE OF ENERGY PROBLEMS OF CHEMICAL PHYSICS, RAS
Wavelength (nm)	Logarithm epsilon
352.235	1.03949
351.279	1.0792
350.257	1.11857
349.151	1.15763
347.948	1.19639
346.631	1.23488
346.631	1.23488
346.28	1.23646
346.113	1.23786
345.988	1.24029
345.74	1.23595
345.578	1.23595
345.402	1.23596
345.22	1.23596
345.22	1.23596
344.637	1.22766
343.962	1.22044
342.96	1.21249
342.569	1.21353
341.286	1.23226
340.428	1.26122
339.893	1.28436
339.893	1.28436
338.523	1.35254
337.901	1.38107
337.486	1.39438
337.486	1.39438
335.91	1.40588
333.774	1.41275
331.642	1.41283
331.642	1.41283
330.657	1.40192
329.428	1.38521
328.822	1.36915
328.822	1.36915
328.365	1.36599
327.874	1.36409
327.328	1.36179
327.328	1.36179
325.815	1.39027
325.415	1.43003
324.859	1.46942
322.901	1.49676
322.901	1.49676
322.251	1.49566
321.816	1.49368
321.222	1.48916
321.222	1.48916
319.365	1.45644
317.18	1.42276
315.762	1.38899
315.762	1.38899
315.073	1.38838
314.665	1.38867
314.185	1.3901
314.185	1.3901
313.014	1.43199
311.828	1.47145
309.057	1.4931
309.057	1.4931
308.524	1.47617
307.801	1.46341
306.203	1.46123
306.203	1.46123
304.996	1.50046
304.103	1.54268
303.427	1.58602
302.876	1.62865
302.358	1.66871
302.358	1.66871
302.066	1.7002
301.784	1.73168
301.512	1.76317
301.249	1.79465
300.995	1.82612
300.75	1.8576
300.513	1.88907
300.284	1.92054
300.063	1.952
299.849	1.98347
299.642	2.01493
299.441	2.04639
299.247	2.07785
299.058	2.10931
298.875	2.14077
298.697	2.17222
298.524	2.20368
298.356	2.23513
298.192	2.26659
298.031	2.29804
297.874	2.3295
297.721	2.36095
297.57	2.3924
297.421	2.42386
297.275	2.45531
297.131	2.48677
296.988	2.51823
296.847	2.54969
296.707	2.58114
296.567	2.6126
296.427	2.64407
296.288	2.67553
296.147	2.707
296.007	2.73847
295.865	2.76994
295.723	2.80141
295.578	2.83289
295.432	2.86436
295.284	2.89585
295.284	2.89585
295.168	2.93053
295.065	2.96141
294.97	2.98928
294.881	3.01496
294.792	3.03923
294.702	3.0629
294.607	3.08677
294.502	3.11165
294.386	3.13834
294.254	3.16763
294.103	3.20033
293.93	3.23723
293.731	3.27915
293.503	3.32688
293.243	3.38123
292.948	3.44299
292.948	3.44299
292.606	3.45894
292.226	3.47467
292.134	3.4889
291.951	3.47175
291.775	3.47047
291.594	3.46913
291.404	3.46768
291.404	3.46768
291.048	3.42865
290.692	3.38961
290.335	3.35055
289.975	3.31145
289.612	3.2723
289.612	3.2723
289.497	3.26872
289.372	3.26514
289.243	3.26156
289.243	3.26156
288.943	3.26201
288.644	3.26235
288.345	3.26264
288.345	3.26264
288	3.26804
287.647	3.27344
287.29	3.27884
287.29	3.27884
285.976	3.31928
284.767	3.35931
283.434	3.39873
283.434	3.39873
283.036	3.40143
282.711	3.40225
282.164	3.40188
282.164	3.40188
281.266	3.37025
280.077	3.32225
278.745	3.27066
278.745	3.27066
278.204	3.25815
277.882	3.2503
277.505	3.2441
277.505	3.2441
276.554	3.22299
274.76	3.19226
273.662	3.17389
273.662	3.17389
273.319	3.16376
272.917	3.14948
272.244	3.12254
271.094	3.07443
269.27	2.99663
269.27	2.99663
269.206	2.99566
269.127	2.99384
269.009	2.99019
268.826	2.98374
268.555	2.97352
268.171	2.95855
267.653	2.93785
266.976	2.91046
266.12	2.87539
265.064	2.83167
263.789	2.77833
262.279	2.7144
260.519	2.63889
258.496	2.55083
258.496	2.55083
257.917	2.52743
257.164	2.50665
255.799	2.49441
255.514	2.49546
254.417	2.52495
253.805	2.57354
253.492	2.61014
253.492	2.61014
252.721	2.71026
252.249	2.77121
251.989	2.80305
251.858	2.81583
251.775	2.8196
251.775	2.8196
251.739	2.83786
251.636	2.86601
251.483	2.90254
251.298	2.94592
251.101	2.99464
250.908	3.04718
250.908	3.04718
250.857	3.05412
250.763	3.0723
250.635	3.0999
250.48	3.13512
250.304	3.17614
250.117	3.22117
249.924	3.26837
249.734	3.31596
249.553	3.36211
249.389	3.40502
249.25	3.44287
249.142	3.47386
249.073	3.49617
249.049	3.508
249.049	3.508
248.679	3.58757
248.358	3.65669
248.081	3.71624
247.845	3.76712
247.643	3.81022
247.472	3.84643
247.328	3.87664
247.205	3.90174
247.1	3.92263
247.008	3.9402
246.924	3.95533
246.845	3.96892
246.766	3.98186
246.682	3.99504
246.589	4.00935
246.589	4.00935
246.229	4.03663
246.047	4.048
245.887	4.05322
245.887	4.05322
245.375	4.05221
245.106	4.05084
244.852	4.04793
244.852	4.04793
244.408	4.02781
243.817	4.00651
243.245	3.98503
243.245	3.98503
243.062	3.98446
242.876	3.98378
242.684	3.98303
242.684	3.98303
241.342	4.01361
240.416	4.04763
239.566	4.08199
238.464	4.11355
238.464	4.11355
237.122	4.10281
236.039	4.0785
235.211	4.05286
235.211	4.05286
233.972	4.02293
232.688	3.99279
231.343	3.96289
229.923	3.9337
229.923	3.9337
229.621	3.9245
229.149	3.91218
228.902	3.89972
228.902	3.89972
228.553	3.88804
228.222	3.87111
228.008	3.85702
228.008	3.85702
227.261	3.83119
226.651	3.79799
225.781	3.76961
225.781	3.76961
225.036	3.74135
223.554	3.69739
222.433	3.66746
222.433	3.66746
222.352	3.66182
222.265	3.65613
222.176	3.65032
222.176	3.65032
222.049	3.64931
221.922	3.6483
221.796	3.64728
221.796	3.64728
221.077	3.6261
220.143	3.60636
219.14	3.58863
219.14	3.58863
217.91	3.57632
216.957	3.57781
215.806	3.59436
215.806	3.59436
215.123	3.61185
214.705	3.62378
214.194	3.6404
214.194	3.6404
214.06	3.64915
213.777	3.66168
213.52	3.67045
213.52	3.67045
213.444	3.67839
213.165	3.69825
212.617	3.74331
212.617	3.74331
212.381	3.77618
212.151	3.80904
211.927	3.8419
211.709	3.87474
211.497	3.90758
211.29	3.94041
211.088	3.97323
210.891	4.00604
210.698	4.03885
210.51	4.07165
210.325	4.10444
210.144	4.13723
209.967	4.17001
209.793	4.20278
209.622	4.23555
209.454	4.26831
209.288	4.30107
209.124	4.33382
208.963	4.36657
208.963	4.36657
208.724	4.40342
208.484	4.44015
208.239	4.47683
208.239	4.47683
207.384	4.52214
206.261	4.56225
204.896	4.59892
204.896	4.59892
203.725	4.60182
202.709	4.59019
201.545	4.57703
201.545	4.57703
200.751	4.55507
200.247	4.52794
199.815	4.49808
199.815	4.49808
199.34	4.48316
198.727	4.45648
198.148	4.43526
198.148	4.43526
197.65	4.41338
196.773	4.37753
196.308	4.35633
196.308	4.35633
195.531	4.32671
194.139	4.25515
194.139	4.25515
193.724	4.2347
193.011	4.2062
192.487	4.18594
192.487	4.18594
191.912	4.16561
191.365	4.14117
190.752	4.11777
190.752	4.11777
190.437	4.10438
189.946	4.08647
189.585	4.07514
189.585	4.07514
189.069	4.05701
188.149	4.02693
187.64	4.00829
187.64	4.00829
