Uv/Vis Spectrum: Acenaphthene
Formula: C12H10
CAS: 83-32-9
Melting point: 93.4
Boiling point: 279
Instrument: Beckman spectrophotometer
Origin: INSTITUTE OF ENERGY PROBLEMS OF CHEMICAL PHYSICS, RAS
Wavelength (nm)	Logarithm epsilon
300	3.63
301	3.64
302	3.64
303	3.64
304	3.64
305	3.62
306	3.59
307	3.55
308	3.5
309	3.47
310	3.44
311	3.46
312	3.47
313	3.46
314	3.43
315	3.38
316	3.32
317	3.32
318	3.36
319	3.36
