Uv/Vis Spectrum: Phenol, 2-(2-benzoxazolyl)-
Formula: C13H9NO2
CAS: 835-64-3
Melting point: 125.5
Instrument: Unicam SP 700
Origin: INSTITUTE OF ENERGY PROBLEMS OF CHEMICAL PHYSICS, RAS
Wavelength (nm)	Logarithm epsilon
211.51	4.421
212.28	4.434
213.04	4.445
213.81	4.452
214.58	4.455
215.35	4.455
216.11	4.448
216.88	4.442
217.65	4.433
218.42	4.427
219.18	4.421
219.95	4.412
220.72	4.404
221.49	4.394
222.25	4.383
223.02	4.373
223.79	4.369
224.56	4.359
225.32	4.344
226.09	4.334
226.86	4.322
227.62	4.313
228.39	4.298
229.16	4.287
229.93	4.269
230.69	4.252
231.46	4.237
232.23	4.218
233	4.202
233.76	4.178
234.53	4.151
235.3	4.122
236.07	4.098
236.83	4.058
237.6	4.015
238.37	3.968
239.13	3.924
239.9	3.902
240.67	3.874
241.44	3.862
242.2	3.848
242.97	3.837
243.54	3.83
244.51	3.824
245.27	3.821
246.04	3.821
246.81	3.827
247.58	3.831
248.34	3.834
249.11	3.834
249.88	3.831
250.65	3.827
251.41	3.824
252.18	3.817
252.95	3.817
253.71	3.821
254.48	3.827
256.02	3.831
256.78	3.837
257.55	3.85
258.32	3.846
259.09	3.817
259.85	3.79
260.62	3.779
261.39	3.775
262.16	3.776
262.92	3.779
263.99	3.79
264.46	3.797
265.22	3.814
265.99	3.831
266.76	3.853
267.53	3.871
268.29	3.894
269.06	3.908
269.83	3.924
270.6	3.944
271.36	3.959
272.13	3.978
272.9	4
273.67	4.011
274.43	4.03
275.2	4.044
275.97	4.054
276.74	4.065
277.5	4.074
278.27	4.084
279.04	4.089
279.8	4.096
280.57	4.101
281.34	4.108
282.11	4.115
282.87	4.122
283.64	4.128
284.41	4.135
285.18	4.138
285.94	4.144
286.71	4.147
287.48	4.149
288.25	4.149
289.01	4.146
289.78	4.143
290.55	4.136
291.31	4.128
292.08	4.117
292.85	4.11
293.62	4.103
294.38	4.1
295.15	4.094
295.92	4.093
296.69	4.087
297.45	4.082
298.22	4.076
298.99	4.073
299.76	4.067
300.52	4.059
301.29	4.056
302.06	4.046
302.83	4.038
303.59	4.028
304.36	4.019
305.13	4.011
305.89	4.007
306.66	3.998
307.43	3.989
308.2	3.987
308.96	3.985
309.73	3.985
310.5	3.994
311.27	3.996
312.03	4.007
312.8	4.015
313.57	4.026
314.34	4.034
315.1	4.042
315.87	4.052
316.64	4.061
317.4	4.073
318.17	4.084
318.94	4.089
319.71	4.101
320.47	4.11
321.24	4.118
322.01	4.125
322.78	4.135
323.54	4.146
324.31	4.155
325.08	4.161
325.85	4.169
326.61	4.176
327.38	4.186
328.15	4.191
328.92	4.199
329.68	4.207
330.45	4.214
331.22	4.219
331.98	4.222
332.75	4.223
333.52	4.226
334.29	4.226
335.05	4.224
335.82	4.221
336.59	4.217
337.36	4.214
338.12	4.207
338.89	4.204
339.66	4.199
340.43	4.193
341.19	4.189
341.96	4.182
342.73	4.178
343.49	4.17
344.26	4.164
345.03	4.157
345.8	4.146
346.56	4.138
347.33	4.127
348.1	4.108
348.87	4.091
349.63	4.067
350.4	4.05
351.17	4.026
351.94	4.007
352.7	3.978
353.47	3.956
354.24	3.918
355.01	3.891
355.77	3.85
356.54	3.79
357.31	3.745
358.07	3.672
358.84	3.607
359.61	3.549
360.38	3.503
361.14	3.436
