Uv/Vis Spectrum: 5-Amino-1-naphthol
Formula: C10H9NO
CAS: 83-55-6
Melting point: 170
Instrument: Spectrophotometer SF-11
Origin: INSTITUTE OF ENERGY PROBLEMS OF CHEMICAL PHYSICS, RAS
Wavelength (nm)	Logarithm epsilon
352.684	3.76485
350.356	3.81996
347.731	3.86819
344.676	3.92028
343.69	3.94135
343.22	3.94581
338.494	4.01971
337.57	4.03512
336.256	4.04966
335.572	4.05675
334.74	4.07325
333.936	4.08288
332.834	4.09269
332.291	4.09729
328.743	4.13377
326.403	4.15613
325.369	4.16315
324.843	4.17256
324.832	4.16862
324.827	4.16663
322.087	4.19536
320.47	4.20795
318.951	4.22071
317.65	4.22938
316.53	4.23533
315.173	4.25071
312.713	4.25971
311.523	4.26414
310.208	4.26598
309.554	4.26677
306.327	4.26701
304.764	4.26713
303.811	4.26546
303.358	4.26474
301.399	4.259
300.574	4.25671
295.514	4.22969
293.066	4.21564
291.887	4.20676
291.325	4.20237
288.488	4.1837
287.425	4.1774
285.465	4.16004
284.495	4.1511
281.049	4.12484
279.375	4.11126
278.688	4.10352
278.367	4.09959
275.749	4.07749
274.847	4.07161
274.555	4.06666
274.43	4.06416
273.136	4.05426
272.51	4.04942
269.434	4.02063
268.597	4.01152
265.39	3.98842
261.74	3.96109
260.938	3.95956
260.539	3.95905
260.28	3.95555
259.84	3.95412
258.494	3.9544
257.812	3.95455
257.587	3.95785
257.461	3.9597
255.92	3.9629
255.668	3.98032
255.157	3.96475
255.047	3.97316
254.825	3.98127
254.677	3.98993
253.932	3.99982
253.222	4.01231
251.7	4.04514
250.889	4.05854
249.745	4.08645
249.494	4.09011
249.184	4.0923
249.013	4.09357
248.647	4.1044
248.437	4.11406
246.32	4.16123
245.724	4.17381
245.048	4.19226
244.715	4.20344
244.317	4.2098
244.119	4.21309
243.156	4.23828
242.268	4.25984
241.689	4.2815
240.869	4.3022
240.507	4.31248
240.302	4.31499
240.23	4.32123
239.904	4.33961
239.487	4.35288
239.389	4.36001
239.196	4.36131
239.088	4.37808
239.043	4.37931
238.991	4.38053
238.683	4.39121
238.569	4.3835
238.488	4.39123
238.3	4.39362
238.294	4.39125
238.155	4.44439
238.117	4.4302
238.05	4.43975
238.005	4.42959
237.9	4.42902
237.845	4.48972
237.808	4.42851
237.797	4.42418
237.791	4.42208
237.741	4.45451
237.707	4.47192
237.679	4.48043
237.616	4.50489
237.426	4.50625
237.395	4.53003
237.345	4.51476
237.32	4.50699
237.242	4.53595
237.15	4.53895
237.148	4.56212
237.135	4.57331
236.945	4.57411
236.838	4.57456
236.704	4.58898
236.334	4.62464
236.319	4.61696
236.038	4.65373
235.95	4.65404
235.744	4.65476
235.742	4.66219
235.707	4.67677
235.547	4.68438
235.417	4.70123
235.329	4.70151
235.125	4.70216
235.11	4.70629
235.051	4.71451
234.886	4.71989
234.519	4.73709
234.286	4.75339
234.199	4.75363
233.996	4.75421
233.885	4.75824
233.662	4.76627
233.529	4.76651
233.486	4.78202
233.437	4.77354
233.413	4.76927
233.391	4.76678
233.319	4.7856
233.241	4.76707
233.224	4.78738
233.186	4.79341
232.95	4.80815
232.864	4.80837
232.664	4.80888
232.619	4.81468
232.507	4.82606
232.325	4.8265
232.295	4.83824
232.143	4.82694
232.099	4.83359
231.962	4.82738
231.952	4.84606
231.929	4.83732
231.845	4.83765
231.767	4.83795
231.71	4.84916
231.648	4.85281
231.495	4.86008
231.313	4.86194
231.004	4.87047
230.992	4.86668
230.726	4.88433
230.641	4.88451
230.64	4.89056
230.546	4.88472
230.46	4.89477
230.444	4.88494
230.159	4.89914
230.15	4.9025
230.104	4.90914
230.02	4.90932
229.824	4.90972
229.738	4.91539
229.567	4.92652
229.284	4.93668
228.882	4.9509
228.649	4.95927
228.531	4.96409
228.476	4.96743
228.455	4.96917
228.278	4.9695
228.179	4.96967
228.109	4.98008
228.06	4.98521
227.884	4.98552
227.785	4.98569
227.47	5.00031
227.277	5.00938
227.172	5.01497
227.121	5.01896
227.092	5.02313
227.011	5.02326
226.871	5.02888
226.854	5.02712
226.82	5.02357
226.672	5.02916
226.252	5.02971
226	5.02952
225.474	5.02911
224.879	5.02323
224.024	5.01375
223.753	5.01088
223.085	5.00153
222.743	4.9956
222.57	4.99531
222.473	4.99514
222.371	4.99179
222.309	4.99009
222.012	4.98669
221.893	4.9836
221.721	4.9833
221.625	4.98313
220.902	4.97039
220.402	4.96161
220.048	4.95525
219.764	4.94958
219.625	4.94645
219.457	4.94612
219.363	4.94594
219.013	4.93765
218.486	4.92658
218.219	4.92014
218.053	4.91979
217.959	4.9196
217.519	4.90905
217.396	4.90473
217.231	4.90437
217.138	4.90417
216.851	4.89545
216.708	4.89102
215.921	4.87452
215.565	4.8664
215.333	4.86008
215.255	4.8595
215.074	4.8583
215.041	4.85342
214.896	4.84699
