Uv/Vis Spectrum: Theobromine
Formula: C7H8N4O2
CAS: 83-67-0
Melting point: 357
Boiling point: sub 290
Instrument: n.i.g.
Origin: INSTITUTE OF ENERGY PROBLEMS OF CHEMICAL PHYSICS, RAS
Wavelength (nm)	Logarithm epsilon
220.014	2.60805
220.107	2.6234
220.136	2.66986
220.167	2.62513
220.279	2.73063
220.292	2.71279
220.344	2.87426
220.353	2.86181
220.37	2.83735
220.412	2.77651
220.5	2.91854
220.546	2.94004
220.572	2.94047
220.624	2.97576
220.668	3.00067
220.704	3.01025
220.729	3.06191
220.74	3.04638
220.764	3.01271
220.804	3.19123
220.818	3.17095
220.846	3.13079
220.925	3.25415
220.941	3.23183
221.065	3.31949
221.077	3.30369
221.088	3.37446
221.162	3.41729
221.203	3.42716
221.283	3.48101
221.333	3.49811
221.427	3.5419
221.466	3.55299
221.545	3.60928
221.584	3.62148
221.655	3.68842
221.833	3.70765
221.939	3.78464
221.954	3.76205
221.986	3.71731
222.059	3.84877
222.073	3.82849
222.172	3.89425
222.291	3.90117
222.308	3.90819
222.322	3.97554
222.328	3.91539
222.359	3.92269
222.684	4.01891
222.79	4.04451
223.674	4.08138
223.788	4.09508
224.863	4.12582
225.372	4.13608
225.517	4.1349
225.808	4.13255
226.608	4.10315
226.784	4.09751
226.821	4.09469
226.873	4.08902
226.997	4.08674
227.228	4.08262
227.969	4.04957
228.02	4.0443
228.168	4.04028
228.463	4.03225
229.067	3.99428
229.178	3.98538
232.55	3.98955
232.95	3.99979
233.885	4.03168
234.118	4.04392
237.05	4.1076
237.337	4.11213
237.762	4.11104
238.021	4.10907
238.784	4.08059
238.895	4.07076
239.661	4.03174
239.713	4.02514
239.859	4.02287
240.151	4.01877
242.229	4.0031
242.916	3.99761
245.201	3.9843
245.838	3.98663
246.772	4.01997
247.006	4.03076
248.268	4.05951
248.782	4.06329
249.03	4.06378
249.545	4.06512
249.653	4.06719
249.892	4.0717
250.083	4.07297
250.489	4.07551
250.632	4.0776
250.918	4.08212
251.9	4.09741
252.35	4.10441
252.556	4.10489
252.969	4.1062
253.897	4.07927
254.362	4.06479
255.279	4.05328
255.73	4.05989
255.731	4.05758
255.734	4.0534
255.896	4.05993
256.246	4.06003
257.17	4.0688
257.623	4.07217
257.725	4.07503
257.947	4.08077
258.972	4.12079
259.294	4.13509
262.213	4.2001
262.678	4.20335
264.33	4.22612
264.891	4.23072
266.651	4.25606
266.939	4.25845
268.596	4.28039
268.803	4.28249
270.558	4.28458
270.954	4.28144
272.681	4.26367
273.533	4.25861
275.257	4.24772
276.459	4.24236
278.08	4.22983
278.371	4.22787
278.579	4.22439
278.978	4.21789
279.949	4.18815
280.118	4.1829
280.22	4.17656
280.4	4.16432
281.096	4.14515
281.099	4.14098
281.244	4.1386
281.517	4.13419
281.677	4.10617
281.996	4.07022
282.375	4.03109
282.387	4.01313
282.637	3.98074
282.748	3.96941
283.025	3.92838
283.134	3.92083
283.579	3.87469
283.688	3.86703
284.131	3.82386
284.246	3.80835
284.688	3.77633
284.962	3.76108
285.405	3.7174
285.518	3.70403
285.96	3.66304
286.069	3.6555
286.33	3.61244
286.546	3.59477
286.718	3.55386
286.84	3.52913
287.11	3.49696
287.226	3.47893
287.422	3.4361
287.434	3.41813
287.629	3.37652
287.64	3.36099
287.847	3.33062
287.861	3.31034
287.872	2.91115
287.89	2.91604
287.901	3.07627
287.909	3.24301
287.923	2.9566
287.934	3.2061
287.942	3.19596
287.949	3.18582
287.964	3.07466
287.967	3.15905
287.978	2.87913
287.983	2.87114
287.986	2.98542
287.986	3.02276
287.994	2.8556
288.015	3.03342
288.048	2.98637
288.088	2.98707
288.43	2.82206
288.544	2.80869
288.669	2.80631
288.9	2.80189
289.633	2.77949
289.683	2.77533
289.83	2.77295
290.122	2.76855
291.609	2.74148
291.775	2.7406
293.62	2.71396
294.197	2.70555
294.234	2.70325
294.284	2.69908
296.033	2.67331
296.373	2.66922
297.373	2.64921
297.585	2.64926
297.878	2.64488
298.463	2.63611
299.88	2.61106
299.93	2.6077
