Uv/Vis Spectrum: N-(4-Methoxybenzylidene)aniline
Formula: C14H13NO
CAS: 836-41-9
Melting point: 191
Instrument: Zeiss PMQ II
Origin: INSTITUTE OF ENERGY PROBLEMS OF CHEMICAL PHYSICS, RAS
Wavelength (nm)	Logarithm epsilon
201.14	4.45
201.43	4.45
202	4.438
202.85	4.433
203.71	4.424
204.57	4.392
205.42	4.356
206.28	4.329
207.13	4.304
207.99	4.273
208.85	4.246
209.7	4.234
210.56	4.22
211.41	4.212
212.27	4.201
213.13	4.201
213.98	4.206
214.84	4.209
215.69	4.217
216.55	4.225
217.41	4.232
218.26	4.242
219.12	4.249
219.97	4.256
220.83	4.262
221.69	4.265
222.54	4.266
223.4	4.263
224.25	4.256
225.11	4.243
225.97	4.229
226.82	4.217
227.68	4.206
228.53	4.184
229.39	4.158
230.24	4.132
231.1	4.092
231.96	4.059
232.81	4.016
233.67	3.998
234.52	3.977
235.38	3.957
236.24	3.918
237.09	3.906
237.95	3.869
238.8	3.82
239.66	3.757
240.52	3.677
241.37	3.6
242.23	3.544
243.08	3.514
243.94	3.497
244.8	3.489
245.65	3.497
247.36	3.514
249.08	3.573
249.93	3.606
250.79	3.631
251.64	3.661
252.5	3.709
253.36	3.734
254.21	3.752
255.07	3.783
255.92	3.812
256.78	3.84
257.64	3.865
258.49	3.893
259.35	3.921
260.2	3.963
261.06	3.977
261.92	4.003
262.77	4.043
263.63	4.059
264.48	4.079
265.34	4.104
266.2	4.126
267.05	4.134
267.91	4.154
268.76	4.176
269.62	4.188
270.48	4.201
271.33	4.215
273.04	4.243
273.9	4.253
274.76	4.265
275.61	4.273
276.47	4.279
277.32	4.281
278.18	4.285
279.04	4.287
279.89	4.288
280.75	4.288
281.6	4.288
282.46	4.287
283.32	4.285
285.03	4.281
285.88	4.277
286.74	4.272
287.6	4.266
288.45	4.262
289.31	4.258
290.16	4.252
291.02	4.245
292.73	4.236
293.59	4.226
294.44	4.219
295.3	4.211
296.16	4.203
297.01	4.196
297.87	4.189
298.72	4.181
299.58	4.174
300.44	4.165
301.29	4.16
303	4.149
303.86	4.141
304.72	4.138
305.57	4.132
306.43	4.128
307.28	4.122
308.14	4.122
309	4.12
309.85	4.116
310.71	4.112
311.56	4.112
314.13	4.112
315.84	4.104
316.7	4.102
317.56	4.102
318.41	4.1
319.27	4.098
320.12	4.092
320.98	4.09
321.84	4.083
322.69	4.081
323.55	4.077
324.4	4.07
325.26	4.066
326.12	4.059
326.97	4.052
327.83	4.043
328.68	4.038
329.54	4.029
332.11	4.003
332.96	4.001
333.82	3.988
334.68	3.98
335.53	3.963
336.39	3.952
337.24	3.94
338.1	3.925
338.96	3.909
339.81	3.889
340.67	3.876
341.52	3.858
342.38	3.843
343.24	3.824
344.09	3.808
346.66	3.757
347.52	3.738
348.37	3.719
349.23	3.699
350.08	3.677
352.65	3.613
353.51	3.593
354.36	3.573
355.22	3.544
356.08	3.514
356.93	3.497
357.79	3.48
358.64	3.445
359.5	3.416
360.36	3.374
