Uv/Vis Spectrum: N-(4-Nitrophenyl)-N-phenylamine
Formula: C12H10N2O2
CAS: 836-30-6
Melting point: 133
Instrument: Zeiss PMQ II
Origin: INSTITUTE OF ENERGY PROBLEMS OF CHEMICAL PHYSICS, RAS
Wavelength (nm)	Logarithm epsilon
193.54	4.441
193.62	4.441
193.7	4.441
193.78	4.441
193.86	4.443
193.94	4.443
194.03	4.443
194.11	4.443
194.19	4.443
194.27	4.445
194.35	4.445
194.43	4.445
194.52	4.445
194.6	4.445
194.84	4.445
195.34	4.452
195.83	4.449
196.33	4.447
196.83	4.441
197.34	4.432
197.84	4.426
198.35	4.417
198.87	4.407
199.38	4.394
199.9	4.381
200.42	4.366
200.94	4.353
201.47	4.336
201.99	4.321
202.52	4.302
203.06	4.287
203.59	4.268
204.13	4.249
204.68	4.227
205.22	4.208
205.77	4.187
206.32	4.163
206.87	4.142
207.43	4.116
207.99	4.095
208.55	4.074
209.12	4.05
209.69	4.033
210.26	4.014
210.84	3.999
211.41	3.982
212	3.969
212.58	3.959
213.17	3.948
213.76	3.939
214.35	3.931
214.95	3.929
215.55	3.927
216.16	3.924
216.77	3.924
217.38	3.924
217.99	3.927
218.61	3.929
219.23	3.931
219.86	3.935
220.49	3.939
221.12	3.946
221.76	3.95
222.4	3.956
223.04	3.961
223.69	3.969
224.34	3.971
224.99	3.978
225.65	3.98
226.32	3.982
226.98	3.988
227.65	3.988
228.33	3.988
229.01	3.988
229.69	3.982
230.37	3.98
231.07	3.978
231.76	3.971
232.46	3.967
233.16	3.961
233.87	3.952
234.58	3.948
235.3	3.939
236.02	3.931
236.74	3.924
237.47	3.918
238.21	3.909
238.95	3.901
239.69	3.892
240.44	3.886
241.19	3.88
241.95	3.877
242.71	3.869
243.48	3.867
244.25	3.86
245.02	3.856
245.81	3.85
246.59	3.845
247.38	3.837
248.18	3.835
248.98	3.826
249.79	3.82
250.6	3.816
251.42	3.807
252.24	3.803
253.07	3.794
253.91	3.786
254.74	3.781
255.59	3.773
256.44	3.764
257.3	3.754
258.16	3.745
259.03	3.734
259.9	3.724
260.78	3.709
261.66	3.692
262.56	3.675
263.45	3.653
264.36	3.63
265.27	3.606
266.18	3.579
267.11	3.549
268.04	3.519
268.97	3.485
269.91	3.446
270.86	3.41
271.82	3.378
272.78	3.359
273.75	3.348
274.72	3.329
275.71	3.31
276.7	3.297
277.69	3.282
278.7	3.271
279.71	3.267
280.73	3.271
281.76	3.271
282.79	3.276
283.83	3.282
284.88	3.291
285.94	3.299
287	3.31
288.08	3.323
289.16	3.34
290.25	3.352
291.34	3.37
292.45	3.382
293.56	3.399
294.68	3.412
295.82	3.423
296.96	3.436
298.1	3.444
299.26	3.455
300.43	3.468
301.6	3.481
302.79	3.498
303.98	3.515
305.19	3.534
306.4	3.551
307.62	3.568
308.86	3.581
310.1	3.594
311.35	3.611
312.62	3.621
313.89	3.641
315.17	3.658
316.47	3.675
317.77	3.696
319.09	3.717
320.42	3.739
321.75	3.764
323.1	3.788
324.46	3.813
325.83	3.845
327.22	3.871
328.61	3.897
330.02	3.924
331.44	3.946
332.87	3.969
334.32	3.995
335.77	4.018
337.24	4.04
338.72	4.063
340.22	4.087
341.73	4.11
343.25	4.127
344.79	4.144
346.34	4.163
347.9	4.183
349.48	4.2
351.07	4.219
352.68	4.238
354.3	4.251
355.93	4.27
357.59	4.283
359.25	4.302
360.94	4.313
362.63	4.326
364.35	4.336
366.08	4.345
367.83	4.355
369.59	4.362
371.37	4.366
373.17	4.373
374.99	4.375
376.82	4.375
378.67	4.375
380.54	4.368
382.43	4.366
384.34	4.362
386.26	4.351
388.21	4.341
390.18	4.326
392.16	4.313
394.17	4.296
396.19	4.281
398.24	4.259
400.31	4.232
402.4	4.202
404.51	4.176
406.65	4.142
408.8	4.104
410.98	4.067
413.19	4.01
415.42	3.967
417.67	3.914
419.94	3.854
422.24	3.805
424.57	3.743
426.92	3.677
429.3	3.598
431.71	3.523
434.14	3.451
436.6	3.374
439.09	3.297
441.6	3.214
444.15	3.133
446.72	3.041
448.56	2.982
450.86	2.911
452.89	2.843
454.74	2.781
456.98	2.707
459.84	2.613
463.03	2.51
466.02	2.416
468.6	2.322
