Uv/Vis Spectrum: 2-Hydroxy-1,4-naphthoquinone
Formula: C10H6O3
CAS: 83-72-7
Melting point: 195-6 dec
Instrument: Beckman DU
Origin: INSTITUTE OF ENERGY PROBLEMS OF CHEMICAL PHYSICS, RAS
Wavelength (nm)	Logarithm epsilon
410	2.73
411	2.72
412	2.7
413	2.69
414	2.67
415	2.66
416	2.64
417	2.62
418	2.6
419	2.59
420	2.57
421	2.56
422	2.54
423	2.52
424	2.5
425	2.48
426	2.46
427	2.44
428	2.41
429	2.39
430	2.37
431	2.35
432	2.33
433	2.3
434	2.29
435	2.26
436	2.24
437	2.21
438	2.19
439	2.16
