Uv/Vis Spectrum: 5,7-Diiodo-8-hydroxyquinoline
Formula: C9H5I2NO
CAS: 83-73-8
Melting point: 200-205
Instrument: Unicam SP 800
Origin: INSTITUTE OF ENERGY PROBLEMS OF CHEMICAL PHYSICS, RAS
Wavelength (nm)	Logarithm epsilon
202.04	4.115
202.21	4.146
202.55	4.176
202.72	4.207
203.22	4.237
203.73	4.268
204.24	4.298
205.26	4.319
206.79	4.322
208.32	4.322
209.84	4.315
211.2	4.302
212.56	4.285
213.92	4.268
215.27	4.254
216.63	4.241
218.16	4.234
219.68	4.231
221.21	4.234
222.74	4.234
224.27	4.224
225.79	4.217
227.15	4.207
228.51	4.197
229.87	4.18
231.22	4.166
232.58	4.149
233.94	4.132
235.13	4.115
236.32	4.098
237.5	4.078
238.69	4.058
239.71	4.037
241.07	4.024
242.59	4.017
244.12	4.027
245.31	4.048
246.5	4.068
247.18	4.095
248.02	4.122
248.7	4.149
249.38	4.176
250.23	4.203
251.08	4.231
251.76	4.258
252.44	4.285
253.28	4.309
254.13	4.336
254.98	4.359
255.83	4.383
256.85	4.403
258.04	4.42
259.22	4.437
260.58	4.451
262.11	4.444
263.64	4.434
264.99	4.417
266.01	4.397
266.86	4.37
267.88	4.349
268.9	4.326
269.92	4.302
270.76	4.278
271.78	4.254
272.8	4.234
273.65	4.21
274.5	4.187
275.52	4.166
276.53	4.146
277.55	4.122
278.57	4.102
279.59	4.081
280.61	4.058
281.79	4.037
282.81	4.017
283.83	3.997
284.85	3.973
286.04	3.953
287.05	3.932
288.07	3.912
289.09	3.892
290.28	3.871
291.47	3.854
292.65	3.834
293.84	3.814
295.03	3.793
296.22	3.773
297.41	3.753
298.25	3.726
299.44	3.705
300.46	3.685
301.31	3.661
302.33	3.641
303.18	3.617
304.02	3.593
305.04	3.57
305.89	3.546
306.91	3.526
307.93	3.502
308.95	3.482
310.13	3.465
311.49	3.454
312.85	3.441
314.38	3.441
315.9	3.437
317.43	3.441
318.96	3.437
320.48	3.437
322.01	3.441
323.37	3.451
324.9	3.454
326.42	3.458
327.78	3.468
329.31	3.468
330.84	3.468
332.36	3.475
333.89	3.478
335.42	3.482
336.95	3.482
338.47	3.482
340	3.482
341.53	3.475
343.05	3.468
344.58	3.465
346.11	3.458
347.64	3.448
348.99	3.431
350.35	3.417
351.71	3.4
353.07	3.387
354.42	3.376
355.78	3.363
357.14	3.346
358.5	3.336
360.02	3.326
361.38	3.312
362.74	3.302
364.27	3.295
365.62	3.278
367.15	3.271
368.68	3.261
370.21	3.258
371.73	3.248
373.26	3.244
374.62	3.234
376.15	3.227
377.67	3.224
379.2	3.224
380.73	3.221
382.25	3.214
383.78	3.214
385.31	3.214
386.84	3.21
388.36	3.207
389.89	3.207
391.42	3.204
392.95	3.193
394.47	3.193
396	3.19
397.53	3.183
399.05	3.173
400.58	3.17
401.94	3.156
403.47	3.153
404.82	3.139
406.35	3.132
407.71	3.119
409.07	3.102
410.42	3.088
411.78	3.075
413.14	3.065
414.5	3.051
415.68	3.034
417.04	3.017
418.23	3
419.42	2.98
420.61	2.96
421.79	2.939
422.98	2.922
424.17	2.905
425.36	2.885
426.38	2.865
427.39	2.844
428.58	2.824
429.43	2.8
430.45	2.78
431.47	2.756
432.65	2.736
433.5	2.712
434.69	2.692
435.54	2.668
436.56	2.648
437.58	2.624
438.42	2.6
439.44	2.577
440.29	2.553
441.31	2.529
442.16	2.505
443.01	2.482
444.02	2.458
445.04	2.438
445.89	2.414
446.91	2.394
447.93	2.373
448.78	2.346
449.96	2.326
450.81	2.302
451.83	2.278
452.85	2.258
453.53	2.231
454.55	2.207
455.39	2.183
456.24	2.16
456.92	2.133
457.77	2.109
458.62	2.085
459.47	2.058
460.32	2.034
461.16	2.011
462.01	1.987
462.86	1.963
463.88	1.939
464.73	1.916
465.58	1.889
466.42	1.865
467.27	1.841
468.29	1.817
469.14	1.79
470.16	1.767
471.01	1.739
472.02	1.716
472.87	1.689
473.55	1.661
474.4	1.638
475.25	1.614
475.93	1.587
476.78	1.563
477.45	1.536
478.3	1.512
478.98	1.485
479.83	1.461
480.34	1.431
481.02	1.404
481.87	1.377
482.55	1.35
483.22	1.323
484.07	1.295
484.58	1.268
485.43	1.241
485.94	1.211
486.45	1.184
486.96	1.156
487.64	1.129
488.15	1.102
488.65	1.075
489.33	1.048
