Uv/Vis Spectrum: Phenanthroquinone
Formula: C14H8O2
CAS: 84-11-7
Melting point: 209
Instrument: n.i.g.
Origin: INSTITUTE OF ENERGY PROBLEMS OF CHEMICAL PHYSICS, RAS
Wavelength (nm)	Logarithm epsilon
380.119	1.53843
379.896	1.55092
379.023	1.61599
378.801	1.62473
378.284	1.67061
378.178	1.68444
378.109	1.69136
378.002	1.69247
377.199	1.7387
376.979	1.75536
376.85	1.80278
376.744	1.81152
376.676	1.81589
376.537	1.81699
376.12	1.85558
376.014	1.86661
375.946	1.87233
375.808	1.87343
375.392	1.90837
375.392	1.92332
375.392	1.93095
374.427	1.93993
374.152	1.94406
374.152	1.98303
374.152	2.00268
373.91	2.05667
373.774	2.08388
373.603	2.13449
373.483	2.12696
373.432	2.09516
372.885	2.15561
372.544	2.16545
372.374	2.17054
372.271	2.17928
371.492	2.23098
371.003	2.24905
370.782	2.27795
370.57	2.29289
370.445	2.33439
370.208	2.33695
370.075	2.33839
370.075	2.34824
369.371	2.39119
369.371	2.40368
369.036	2.45345
368.826	2.45709
368.336	2.49678
368.336	2.50663
367.671	2.54958
367.671	2.56452
367.307	2.61184
367.099	2.62058
366.613	2.66282
366.405	2.67776
366.283	2.68539
365.955	2.72326
365.594	2.69304
365.4	2.7552
365.266	2.75895
365.266	2.78954
365.266	2.80227
365.158	2.80348
365.036	2.80484
364.906	2.80628
364.808	2.76005
364.743	2.82485
364.58	2.76077
364.332	2.83087
364.254	2.87765
364.097	2.85418
364.091	2.83614
363.572	2.91734
363.57	2.88784
363.45	2.914
363.343	2.92108
363.215	2.89294
363.215	2.92316
363.117	2.9319
363.053	2.93627
362.85	2.94137
362.73	2.94392
362.315	2.98804
362.053	3.00436
360.007	3.05064
359.087	3.07208
358.446	3.08457
358.109	3.09102
357.983	3.09722
357.92	3.10048
356.845	3.11419
356.48	3.11723
355.609	3.13253
355.175	3.14017
355.081	3.14611
355.021	3.14928
354.803	3.15184
354.681	3.15328
354.681	3.15803
354.681	3.16056
353.748	3.17076
353.267	3.17586
353.144	3.18095
353.083	3.1835
352.258	3.19224
351.833	3.19661
349.902	3.22393
348.077	3.25305
347.78	3.25925
347.632	3.26252
346.913	3.26991
345.013	3.29856
344.549	3.30382
342.923	3.33243
342.317	3.34117
340.09	3.36447
339.212	3.37431
336.024	3.39651
335.83	3.39762
335.72	3.39833
335.636	3.40343
335.582	3.40598
335.022	3.40598
333.44	3.41545
333.089	3.42135
332.868	3.42309
331.669	3.42673
329.238	3.43438
328.415	3.43548
326.365	3.4362
325.138	3.43326
322.874	3.41726
322.874	3.41981
322.874	3.42491
322.262	3.41592
321.956	3.41545
321.591	3.41196
321.296	3.4078
320.589	3.4027
319.985	3.39833
319.633	3.39833
316.113	3.34918
315.77	3.34553
315.599	3.34371
315.429	3.33862
315.355	3.33607
315.087	3.33353
313.078	3.30767
312.855	3.30605
310.857	3.27781
309.959	3.26761
309.511	3.26252
309.424	3.25742
308.644	3.23994
308.411	3.23859
306.002	3.20207
305.773	3.20072
303.293	3.2079
302.909	3.21154
301.075	3.2363
301.007	3.24105
300.963	3.24358
300.121	3.25998
299.702	3.26834
299.327	3.27819
299.13	3.28327
299.042	3.28947
298.32	3.31167
297.877	3.31167
297.645	3.31167
297.508	3.32548
297.427	3.32878
296.988	3.33752
295.744	3.3703
295.379	3.37903
294.186	3.41909
293.74	3.43168
292.539	3.46824
292.104	3.48111
290.806	3.50975
290.308	3.5306
288.787	3.57383
288.405	3.57907
288.235	3.5833
288.017	3.59455
287.727	3.60406
287.646	3.60516
286.453	3.64192
286.199	3.65401
286.051	3.66632
285.844	3.66996
285.73	3.67178
285.45	3.68198
285.31	3.68708
284.122	3.71286
282.835	3.7548
282.459	3.76969
280.924	3.8116
280.455	3.82544
280.21	3.83236
279.515	3.83465
279.212	3.84728
279.153	3.86622
279.116	3.87569
278.996	3.88078
278.925	3.88333
278.391	3.88808
278.125	3.89061
277.916	3.89717
277.633	3.90372
276.571	3.90637
274.917	3.90773
274.529	3.90773
274.344	3.90773
274.202	3.90492
272.82	3.89243
271.873	3.88879
269.803	3.86986
269.375	3.86341
267.238	3.83964
266.872	3.836
264.361	3.82835
264.013	3.82835
263.83	3.82835
263.71	3.83091
262.505	3.84911
262.146	3.85485
261.713	3.8644
261.133	3.86909
260.925	3.87204
260.82	3.87798
260.758	3.88115
260.293	3.89293
258.772	3.92848
258.558	3.93469
257.074	3.96635
256.863	3.97228
255.992	3.99257
255.827	3.99486
255.735	3.99621
255.575	4.00131
255.495	4.00385
255.312	4.01526
254.585	4.03954
254.16	4.0469
252.769	4.08105
252.468	4.0907
