Uv/Vis Spectrum: (R,S)-4,4'-(1,2-diethyl-1,2-ethanediyl)bis-phenol
Formula: C18H22O2
CAS: 84-16-2
Melting point: 186.5
Instrument: Cary 15
Origin: INSTITUTE OF ENERGY PROBLEMS OF CHEMICAL PHYSICS, RAS
Wavelength (nm)	Logarithm epsilon
239.245	3.768
240.245	3.432
241.245	3.178
242.245	2.995
243.245	2.872
244.245	2.795
245.245	2.753
246.07	2.734
247.071	2.723
248.113	2.716
249.113	2.709
250.113	2.713
251.113	2.729
252.113	2.756
253.113	2.791
254.113	2.831
255.113	2.871
256.113	2.909
257.113	2.943
257.99	2.978
258.991	3.011
260.083	3.053
261.053	3.093
262.053	3.141
263.053	3.186
264.053	3.23
265.053	3.271
266.053	3.31
267.053	3.347
268.053	3.38
269.053	3.411
270.053	3.439
271.053	3.464
272.053	3.485
273.053	3.503
274.053	3.517
275.159	3.529
276.159	3.535
277.159	3.545
278.159	3.551
279.159	3.551
280.159	3.545
281.159	3.532
282.159	3.515
283.159	3.495
284.159	3.476
285.159	3.457
286.159	3.44
287.159	3.423
288.21	3.4
289.21	3.368
290.21	3.298
291.21	3.203
292.21	3.095
293.21	2.982
294.21	2.866
295.21	2.747
296.21	2.617
297.21	2.461
