Uv/Vis Spectrum: o-Terphenyl
Formula: C18H14
CAS: 84-15-1
Melting point: 56.2
Boiling point: 332
Instrument: n.i.g.
Origin: INSTITUTE OF ENERGY PROBLEMS OF CHEMICAL PHYSICS, RAS
Wavelength (nm)	Logarithm epsilon
222.435	4.31509
222.535	4.31707
222.642	4.31907
222.753	4.32108
222.907	4.32586
223.006	4.32741
223.112	4.32896
223.222	4.33051
223.895	4.33599
224.022	4.33663
224.148	4.3373
224.275	4.33799
225.179	4.34283
225.27	4.34365
225.366	4.34448
225.47	4.34534
226.374	4.35009
226.416	4.35072
226.467	4.35137
226.522	4.35203
227.427	4.35751
227.604	4.35969
227.723	4.36081
227.885	4.36183
228.27	4.36592
228.439	4.36722
228.617	4.36855
228.798	4.36989
229.11	4.37308
229.274	4.37513
229.393	4.37621
229.567	4.37725
230.007	4.38169
230.153	4.38262
231.13	4.39003
231.294	4.3911
231.374	4.39213
232.135	4.39641
232.281	4.39731
232.431	4.3982
232.588	4.3991
233.459	4.39811
233.563	4.39751
233.664	4.39692
233.756	4.39635
234.491	4.39153
234.492	4.39184
234.493	4.39216
234.494	4.39251
235.353	4.38789
235.457	4.3871
235.558	4.38634
235.65	4.38559
236.081	4.38066
236.131	4.37972
236.177	4.37878
236.216	4.37783
236.503	4.37224
236.552	4.37098
236.598	4.36974
236.635	4.36852
237.067	4.36365
237.117	4.36247
237.162	4.36131
237.2	4.36018
237.489	4.35489
237.591	4.35322
237.689	4.35157
237.779	4.34993
238.052	4.3454
238.102	4.34406
238.152	4.34274
238.202	4.34144
238.331	4.33627
238.43	4.33355
238.526	4.33084
238.613	4.32814
238.887	4.32344
238.953	4.32136
239.019	4.31927
239.085	4.31717
239.303	4.3114
239.35	4.30912
239.393	4.30685
239.429	4.30459
239.718	4.29895
239.766	4.29683
239.81	4.29472
239.846	4.29263
240.134	4.28621
240.181	4.28363
240.224	4.28104
240.259	4.27843
240.546	4.27107
240.611	4.26826
240.659	4.25748
240.676	4.26547
240.741	4.26268
240.783	4.25734
240.908	4.25722
241.032	4.25713
241.032	4.25713
241.096	4.25379
241.16	4.25042
241.225	4.24702
241.372	4.24059
241.42	4.23842
241.464	4.23624
241.501	4.23405
241.775	4.21995
241.779	4.22167
241.782	4.2234
241.786	4.22517
241.903	4.21235
241.951	4.20977
241.995	4.20718
242.031	4.20463
242.319	4.19675
242.368	4.19435
242.412	4.19194
242.448	4.18951
242.578	4.18225
242.679	4.17947
242.776	4.17667
242.866	4.17385
243.155	4.16632
243.204	4.16374
243.248	4.16115
243.285	4.15855
243.415	4.1516
243.517	4.14893
243.615	4.14625
243.705	4.14355
244.137	4.13535
244.287	4.13213
244.429	4.12889
244.567	4.12563
244.999	4.11662
245.096	4.11399
245.186	4.1114
245.272	4.10883
245.846	4.10004
246.05	4.09655
246.245	4.09303
246.437	4.08948
247.153	4.07966
247.229	4.07752
247.372	4.0754
247.447	4.07333
248.466	4.06259
248.763	4.05907
249.057	4.05559
249.343	4.05211
250.809	4.04242
251.075	4.04104
251.34	4.03969
251.606	4.03839
253.166	4.03189
253.484	4.03008
253.803	4.02834
254.121	4.02661
255.361	4.01996
255.679	4.0181
255.998	4.01631
256.316	4.01453
257.573	4.00769
257.861	4.00573
258.158	4.00399
258.457	4.00151
259.624	3.99386
259.794	3.99325
259.986	3.99192
260.366	3.98873
261.832	3.97687
262.079	3.9751
262.322	3.97332
262.557	3.97154
263.739	3.96054
264.127	3.95658
264.514	3.95266
264.902	3.94874
265.781	3.93647
266.027	3.9333
266.273	3.93011
266.519	3.9269
267.378	3.91252
267.896	3.90254
268.085	3.89805
268.111	3.89537
268.688	3.88407
268.84	3.8805
268.984	3.87691
269.124	3.87328
270.139	3.8517
270.291	3.84786
270.435	3.84398
270.575	3.84007
271.311	3.82427
271.533	3.81834
271.746	3.81233
271.956	3.80624
272.763	3.78912
272.916	3.78525
273.06	3.78145
273.2	3.77767
274.06	3.75726
274.264	3.75168
274.461	3.74609
274.654	3.74055
275.533	3.72056
275.632	3.71653
275.723	3.71253
275.81	3.70862
276.831	3.6858
277.053	3.67922
277.268	3.6726
277.479	3.66603
278.446	3.64217
278.56	3.63691
278.711	3.63236
279.025	3.62457
279.744	3.6002
279.95	3.59418
280.148	3.58826
280.342	3.58234
281.504	3.54982
281.697	3.54252
281.89	3.53519
282.083	3.52794
282.823	3.50533
283.169	3.49251
283.507	3.47952
283.842	3.46625
284.563	3.43735
284.862	3.42725
285.157	3.41691
285.444	3.40633
286.624	3.35659
286.724	3.3519
286.817	3.34715
286.906	3.34236
288.226	3.27782
288.574	3.26174
288.914	3.24543
289.25	3.22868
290.132	3.18135
290.379	3.16844
290.626	3.1556
290.873	3.14261
