Uv/Vis Spectrum: 2-(4-methoxyphenyl)-5-phenyl-1,3,4-oxadiazole
Formula: C15H12N2O2
CAS: 842-79-5
Melting point: 146-147
Instrument: SF-4
Origin: INSTITUTE OF ENERGY PROBLEMS OF CHEMICAL PHYSICS, RAS
Wavelength (nm)	Logarithm epsilon
224.277	3.996
225.277	3.934
226.277	3.895
227.277	3.872
228.277	3.863
229.277	3.862
230.277	3.867
231.277	3.876
232.277	3.887
233.277	3.898
234.277	3.909
235.277	3.92
236.277	3.928
237.277	3.935
238.277	3.94
239.277	3.943
240.277	3.944
241.277	3.942
242.277	3.938
243.277	3.93
244.277	3.921
245.277	3.909
246.277	3.896
246.31	3.897
247.31	3.878
248.31	3.863
249.31	3.854
250.31	3.849
251.31	3.849
252.31	3.851
253.31	3.856
254.31	3.862
255.31	3.869
256.31	3.875
257.31	3.881
258.31	3.888
259.31	3.897
260.31	3.91
261.54	3.928
262.54	3.945
263.54	3.964
264.54	3.985
265.54	4.008
266.54	4.033
267.54	4.06
268.519	4.083
269.519	4.119
270.519	4.15
271.519	4.177
272.519	4.202
273.519	4.224
274.519	4.244
275.519	4.263
276.519	4.28
277.519	4.296
278.519	4.312
279.519	4.327
280.519	4.34
281.519	4.354
282.519	4.366
283.519	4.378
284.519	4.39
285.519	4.4
286.519	4.41
287.519	4.42
288.519	4.429
289.519	4.438
290.519	4.446
291.519	4.454
292.519	4.461
292.667	4.461
293.667	4.471
294.667	4.478
295.667	4.482
296.667	4.484
297.667	4.484
298.667	4.483
299.667	4.481
300.667	4.478
301.667	4.474
302.667	4.47
303.667	4.465
304.667	4.459
305.667	4.453
306.667	4.446
307.667	4.439
308.667	4.43
309.667	4.42
310.667	4.408
311.667	4.394
312.667	4.377
313.667	4.358
314.667	4.334
315.667	4.307
316.667	4.274
317.667	4.235
318.667	4.19
319.635	4.132
320.635	4.081
321.635	4.017
322.635	3.949
323.635	3.883
324.635	3.82
325.635	3.759
326.635	3.696
327.635	3.627
328.635	3.548
329.567	3.469
330.567	3.363
331.567	3.264
332.567	3.166
333.567	3.063
334.567	2.951
335.567	2.826
336.621	2.672
