Uv/Vis Spectrum: 2-Naphthalenol, 1-(phenylazo)-
Formula: C16H12N2O
CAS: 842-07-9
Melting point: 133-134
Instrument: Specord UV-Vis
Origin: INSTITUTE OF ENERGY PROBLEMS OF CHEMICAL PHYSICS, RAS
Wavelength (nm)	Logarithm epsilon
387.68	3.867
389.05	3.87
390.41	3.873
391.78	3.878
392.98	3.883
394.17	3.888
395.54	3.893
396.56	3.898
397.58	3.904
398.61	3.91
399.29	3.917
400.15	3.923
400.83	3.93
401.68	3.936
402.54	3.943
403.56	3.948
404.58	3.952
405.78	3.956
407.15	3.959
408.51	3.961
409.88	3.963
411.24	3.966
412.61	3.969
413.97	3.971
415.51	3.973
416.88	3.975
418.24	3.979
419.61	3.982
421.15	3.983
422.51	3.986
423.88	3.99
425.07	3.993
426.44	3.996
427.63	4
429	4.003
430.36	4.005
431.56	4.01
432.93	4.012
434.12	4.016
435.32	4.02
436.27	4.024
437.36	4.029
438.56	4.033
439.7	4.037
440.75	4.04
441.8	4.044
442.83	4.048
444.02	4.052
445.03	4.056
446.03	4.059
447.1	4.064
448.12	4.068
448.97	4.072
450.17	4.076
451.19	4.08
452.26	4.084
453.26	4.088
454.27	4.091
455.46	4.095
456.66	4.098
457.68	4.102
458.71	4.106
459.73	4.11
460.92	4.113
461.95	4.117
463.14	4.12
464.17	4.123
465.36	4.126
466.22	4.13
467.24	4.134
468.27	4.137
469.29	4.14
470.31	4.144
471.51	4.147
472.36	4.151
473.22	4.154
474.24	4.157
475.27	4.16
476.29	4.163
477.31	4.166
478.34	4.169
479.36	4.172
480.39	4.175
481.75	4.177
482.95	4.18
484.31	4.182
485.68	4.184
487.05	4.185
488.58	4.186
490.12	4.187
491.66	4.187
493.19	4.185
494.73	4.184
496.09	4.182
497.46	4.18
498.83	4.178
499.85	4.175
501.05	4.172
502.07	4.169
502.75	4.165
503.44	4.161
503.95	4.157
504.63	4.153
505.14	4.149
505.75	4.146
506.34	4.141
507.02	4.137
507.53	4.133
508.05	4.128
508.56	4.124
509.01	4.119
509.58	4.114
510	4.11
510.47	4.106
511	4.1
511.5	4.094
511.86	4.09
512.31	4.086
512.83	4.081
513.34	4.076
513.85	4.071
514.36	4.066
514.7	4.06
515.22	4.055
515.56	4.05
516.07	4.044
516.41	4.039
516.92	4.033
517.26	4.027
517.62	4.023
518.1	4.016
518.46	4.01
518.97	4.004
519.37	3.998
519.83	3.992
520.34	3.986
520.85	3.979
521.24	3.973
521.7	3.966
522.04	3.959
522.39	3.952
522.78	3.945
523.24	3.939
523.75	3.932
524.26	3.924
524.64	3.917
524.95	3.909
525.46	3.902
525.8	3.894
526.13	3.886
526.65	3.878
527.03	3.871
527.46	3.862
527.85	3.854
528.19	3.845
528.7	3.836
529	3.827
529.39	3.817
529.73	3.807
530.12	3.798
530.41	3.788
