Uv/Vis Spectrum: 9,10-Anthracenedione, 2-methyl-
Formula: C15H10O2
CAS: 84-54-8
Melting point: 177
Boiling point: sub
Instrument: Spectrophotometer SF-16
Origin: INSTITUTE OF ENERGY PROBLEMS OF CHEMICAL PHYSICS, RAS
Wavelength (nm)	Logarithm epsilon
220	4.01999
221	3.99
222	3.93
223	3.91
224	3.89
225	3.9
226	3.89
227	3.9
228	3.9
229	3.93
230	3.96
231	3.98
232	3.99
233	4.03
234	4.03
235	4.07
236	4.11
237	4.13
238	4.14
239	4.17
240	4.22999
241	4.25
242	4.27
243	4.31
244	4.36
245	4.39
246	4.42
247	4.41
248	4.45
249	4.49
250	4.52
251	4.52
252	4.55
253	4.58
254	4.61
255	4.63
256	4.64
257	4.66
258	4.7
259	4.7
260	4.72
261	4.72
262	4.67
263	4.67
264	4.62
265	4.59
266	4.55
267	4.51
268	4.5
269	4.43
270	4.39
271	4.36
272	4.29
273	4.24
274	4.24
275	4.23
276	4.25
277	4.22
278	4.23
279	4.22
280	4.21
281	4.18
282	4.17
283	4.04
284	3.98
285	3.87
286	3.79
287	3.76
288	3.66
289	3.54
290	3.45
291	3.4
292	3.34
293	3.33
294	3.31
295	3.33
296	3.33
297	3.32
298	3.33
299	3.33
300	3.36001
301	3.38
302	3.38
303	3.4
304	3.43
305	3.43
306	3.44
307	3.46
308	3.48
309	3.5
310	3.52999
311	3.54
312	3.55
313	3.56
314	3.59
315	3.6
316	3.61
317	3.63
318	3.65
319	3.65
320	3.66
321	3.68
322	3.7
323	3.7
324	3.72
325	3.72
326	3.73
327	3.74
328	3.74
329	3.75
330	3.75
331	3.75
332	3.74
333	3.75
334	3.74
335	3.72
336	3.72
337	3.72
338	3.69
339	3.69
340	3.66
341	3.66
342	3.63
343	3.61
344	3.6
345	3.58
346	3.55
347	3.53
348	3.53
349	3.49
350	3.48001
351	3.44
352	3.42
353	3.38
354	3.37
355	3.34
356	3.31
357	3.27
358	3.22
359	3.19
360	3.15999
361	3.13
362	3.11
363	3.09
364	3.01
365	2.98
366	2.92
367	2.89
368	2.86
369	2.82
370	2.77
371	2.71
372	2.67
373	2.67
374	2.62
375	2.59
376	2.56
377	2.52
378	2.48
379	2.48
