Uv/Vis Spectrum: Anthraflavic acid
Formula: C14H8O4
CAS: 84-60-6
State: <none>
Melting point: 330
Instrument: n.i.g.
Origin: INSTITUTE OF ENERGY PROBLEMS OF CHEMICAL PHYSICS, RAS
Wavelength (nm)	Logarithm epsilon
255.01	4.052
255.43	4.056
255.86	4.071
256.32	4.085
256.78	4.094
257.94	4.129
259.18	4.168
261.27	4.226
263.36	4.284
265.42	4.339
267.53	4.388
269.58	4.431
272.12	4.488
273.79	4.52
275.88	4.541
277.96	4.553
280.06	4.539
282.22	4.477
284.38	4.394
286.31	4.317
288.39	4.237
290.48	4.181
292.55	4.166
294.66	4.172
296.74	4.189
298.83	4.222
300.92	4.243
303.01	4.263
305.09	4.272
307.04	4.253
308.28	4.212
309.27	4.164
311.35	4.048
313.44	3.936
315.53	3.845
317.61	3.771
319.7	3.721
321.79	3.688
323.87	3.655
325.96	3.634
328.05	3.634
330.13	3.655
332.22	3.692
334.31	3.734
336.39	3.763
338.48	3.796
340.57	3.829
342.66	3.858
344.74	3.891
346.83	3.899
348.92	3.912
351	3.907
353.09	3.874
355.18	3.808
356.92	3.756
359.35	3.676
361.42	3.615
363.52	3.547
365.61	3.489
367.7	3.448
369.78	3.407
371.87	3.365
373.96	3.328
376.04	3.295
377.95	3.271
380.22	3.245
382.29	3.221
384.39	3.187
386.46	3.155
388.79	3.126
390.65	3.104
392.63	3.072
394.83	3.034
396.91	3.001
398.98	2.972
400.98	2.943
402.98	2.91
405.15	2.872
407.15	2.831
408.99	2.794
411.33	2.748
413.66	2.702
415.69	2.662
417.78	2.608
419.87	2.562
421.95	2.488
424.18	2.42
426.13	2.347
427.85	2.283
430.3	2.215
432.26	2.151
434.48	2.082
436.56	2.024
438.65	1.983
440.74	1.946
442.82	1.904
445.18	1.865
447.64	1.827
451.17	1.78
453.26	1.751
455.34	1.722
457.46	1.7
459.52	1.681
461.6	1.66
463.93	1.639
465.78	1.627
467.86	1.606
469.95	1.577
471.75	1.551
