Uv/Vis Spectrum: Anthraquinone
Formula: C14H8O2
CAS: 84-65-1
Melting point: 286
Boiling point: 377
Instrument: n.i.g.
Origin: INSTITUTE OF ENERGY PROBLEMS OF CHEMICAL PHYSICS, RAS
Wavelength (nm)	Logarithm epsilon
242.114	4.35994
242.572	4.37941
242.998	4.40463
243.415	4.43442
243.849	4.46763
244.322	4.5031
244.86	4.53966
245.486	4.57615
246.225	4.61142
247.1	4.64429
248.136	4.67362
249.357	4.69823
250.788	4.71697
252.452	4.72867
252.452	4.72867
253.527	4.71604
254.171	4.70597
254.939	4.68983
254.939	4.68983
255.182	4.6549
255.431	4.61995
255.685	4.58498
255.943	4.54997
256.204	4.51491
256.466	4.47978
256.466	4.47978
256.983	4.46794
257.899	4.43883
259.43	4.39059
261.793	4.32135
261.793	4.32135
263.292	4.28722
265.256	4.25432
268.506	4.23684
268.506	4.23684
269.604	4.24971
270.656	4.25942
272.562	4.27431
272.562	4.27431
274.133	4.24352
275.647	4.2102
276.354	4.17424
277.357	4.15974
277.604	4.13442
278.004	4.11794
278.899	4.09618
278.899	4.09618
279.105	4.06373
279.284	4.03109
279.437	3.99829
279.566	3.96534
279.674	3.93228
279.763	3.89911
279.834	3.86586
279.889	3.83256
279.931	3.79921
279.962	3.76585
279.983	3.73249
279.997	3.69916
280.005	3.66587
280.005	3.66587
280.231	3.66277
280.426	3.65475
280.645	3.63602
280.942	3.6008
281.374	3.54332
281.995	3.45778
281.995	3.45778
282.658	3.42079
283.32	3.3838
283.982	3.3468
284.644	3.30981
285.306	3.27282
285.969	3.23582
285.969	3.23582
287.178	3.22302
288.327	3.21609
290.396	3.21192
290.396	3.21192
292.697	3.23536
294.284	3.257
295.612	3.28596
295.612	3.28596
297.786	3.32248
300.127	3.36026
302.452	3.39703
304.577	3.43053
306.319	3.45847
307.497	3.4786
307.925	3.48865
307.925	3.48865
308.952	3.50545
310.416	3.53428
312.579	3.57614
315.702	3.63206
315.702	3.63206
318.187	3.66126
320.682	3.68427
323.247	3.69895
325.94	3.70313
328.821	3.69466
331.949	3.67139
331.949	3.67139
334.071	3.64284
336.045	3.61484
337.87	3.58708
339.545	3.55928
341.068	3.53112
342.439	3.50232
343.657	3.47258
344.72	3.44159
345.628	3.40905
346.379	3.37468
346.973	3.33817
346.973	3.33817
347.06	3.33721
347.144	3.33569
347.231	3.33295
347.328	3.32834
347.442	3.32118
347.579	3.31081
347.747	3.29657
347.953	3.2778
348.203	3.25384
348.504	3.22402
348.864	3.18768
349.289	3.14415
349.787	3.09278
350.363	3.03291
351.026	2.96386
351.781	2.88498
352.636	2.79561
352.636	2.79561
352.966	2.77897
353.4	2.74126
353.886	2.69314
354.372	2.64526
354.805	2.60826
355.133	2.5928
355.133	2.5928
355.831	2.56441
356.534	2.53503
357.255	2.50486
358.007	2.47411
358.804	2.44295
359.658	2.41161
360.583	2.38028
361.593	2.34916
362.701	2.31844
363.919	2.28832
365.263	2.25902
366.744	2.23071
368.376	2.20361
370.173	2.17792
372.148	2.15383
374.313	2.13154
376.684	2.11125
