Uv/Vis Spectrum: Dibutyl phthalate
Formula: C16H22O4
CAS: 84-74-2
Boiling point: 340 dec.
Instrument: SF-4
Origin: INSTITUTE OF ENERGY PROBLEMS OF CHEMICAL PHYSICS, RAS
Wavelength (nm)	Logarithm epsilon
259.9	3.859
260.9	3.846
261.98	3.832
263	3.822
263.52	3.818
264.03	3.814
264.58	3.812
265.03	3.811
265.6	3.815
266.07	3.82
266.58	3.826
267.1	3.834
268.14	3.846
269.15	3.858
270.17	3.871
271.19	3.886
272.22	3.904
273.27	3.92
274.27	3.934
275.29	3.946
276.31	3.949
277.34	3.948
278.36	3.939
278.91	3.928
279.38	3.916
279.83	3.909
280.41	3.906
281.43	3.903
282.46	3.898
283.48	3.894
284.46	3.889
285.53	3.88
286.55	3.874
287.58	3.866
288.21	3.856
288.77	3.837
289.62	3.802
290.65	3.755
291.67	3.709
292.7	3.66
293.72	3.613
294.74	3.567
295.77	3.522
296.79	3.482
297.81	3.434
298.84	3.393
299.86	3.346
300.89	3.295
301.91	3.242
302.93	3.2
303.96	3.148
304.98	3.103
306.04	3.046
307.03	2.999
308.05	2.957
309.08	2.912
310.1	2.861
311.18	2.808
312.12	2.765
313.16	2.73
314.2	2.698
