Uv/Vis Spectrum: Benzo[f]quinoline
Formula: C13H9N
CAS: 85-02-9
Melting point: 94
Boiling point: 352; 202-5(8)
Instrument: Hilger Uvispek H700/302
Origin: INSTITUTE OF ENERGY PROBLEMS OF CHEMICAL PHYSICS, RAS
Wavelength (nm)	Logarithm epsilon
220	3.47
221	3.49
222	3.51
223	3.54
224	3.56
225	3.59
226	3.62
227	3.64
228	3.67
229	3.7
230	3.74
231	3.77
232	3.8
233	3.83
234	3.86
235	3.9
236	3.93
237	3.96
238	3.99
239	4.02
240	4.05
241	4.08
242	4.1
243	4.12
244	4.14
245	4.16
246	4.18
247	4.2
248	4.22
249	4.23
250	4.25
251	4.26
252	4.26
253	4.26
254	4.26
255	4.24
256	4.24
257	4.23
258	4.23
259	4.22
260	4.21
261	4.2
262	4.15
263	4.12
264	4.07
265	4.01
266	3.93
267	3.86
268	3.77
269	3.68
270	3.59
271	3.51
272	3.42
273	3.33
274	3.25
275	3.16
276	3.08
277	3.01
278	2.92
279	2.84
280	2.76
281	2.72
282	2.68
283	2.65
284	2.63
285	2.6
286	2.58
287	2.56
288	2.55
289	2.53
290	2.53
291	2.51
292	2.5
293	2.5
294	2.49
295	2.48
296	2.48
297	2.48
298	2.47
299	2.47
300	2.46
301	2.46
302	2.45
303	2.45
304	2.45
305	2.44
306	2.44
307	2.44
308	2.44
309	2.43
310	2.43
311	2.42
312	2.42
313	2.41
314	2.41
315	2.41
316	2.4
317	2.4
318	2.39
319	2.39
320	2.39
321	2.38
322	2.38
323	2.37
324	2.36
325	2.36
326	2.35
327	2.34
328	2.33
329	2.32
