Uv/Vis Spectrum: Phenanthrene
Formula: C14H10
CAS: 85-01-8
Melting point: 99.2
Boiling point: 340
Instrument: n.i.g.
Origin: INSTITUTE OF ENERGY PROBLEMS OF CHEMICAL PHYSICS, RAS
Wavelength (nm)	Logarithm epsilon
380.16	1.05787
380.048	1.08389
379.794	1.08652
379.287	1.20154
379.18	1.26658
379.003	1.30024
378.751	1.30287
378.578	1.38263
378.309	1.44608
377.906	1.54124
377.505	1.63641
377.104	1.73157
376.704	1.82674
376.304	1.9219
376.064	1.96057
375.814	1.97484
375.642	2.06864
375.416	2.07105
375.243	2.10597
375.116	2.17339
374.79	2.21413
374.588	2.21653
374.405	2.22244
373.959	2.21412
373.611	2.19631
373.175	2.19161
372.853	2.16975
372.475	2.1381
371.34	2.12918
371.226	2.10658
370.908	2.07099
370.38	2.0227
370.036	2.01893
369.923	2.00123
369.768	1.99017
369.572	1.98537
368.617	1.91792
367.949	1.8872
367.235	1.84384
366.231	1.77445
365.895	1.77067
365.359	1.73859
365.11	1.71325
365.108	1.72274
364.808	1.69089
364.385	1.68267
364.001	1.6772
363.238	1.68026
362.603	1.71209
362.509	1.73914
362.35	1.75395
362.119	1.75659
360.921	1.86386
360.107	1.9356
359.483	1.9712
359.108	2.01394
358.509	2.06132
357.364	2.1624
356.214	2.26363
355.735	2.30194
355.512	2.31142
355.365	2.33812
354.962	2.33812
354.76	2.34267
354.76	2.35215
353.729	2.34871
353.552	2.32875
353.156	2.29974
352.544	2.26174
352.261	2.26002
351.692	2.20925
351.358	2.17261
351.256	2.15012
350.947	2.14635
350.772	2.12991
350.528	2.11885
350.222	2.11279
349.945	2.08608
349.371	2.08442
348.534	2.08594
348.359	2.09667
348.054	2.10043
347.879	2.11686
347.685	2.1262
347.472	2.12883
347.333	2.14834
346.586	2.19078
346.01	2.21895
345.627	2.23322
345.051	2.27943
344.497	2.31023
344.017	2.32838
343.639	2.33418
343.503	2.34855
342.942	2.32948
342.754	2.32492
342.674	2.3167
342.38	2.31293
342.282	2.30345
341.976	2.28729
341.293	2.25266
341.028	2.2466
340.896	2.24376
340.368	2.24943
340.049	2.2547
339.651	2.28448
339.448	2.28711
339.263	2.29645
339.096	2.31288
338.808	2.31664
338.361	2.3529
337.548	2.41007
337.467	2.42274
337.182	2.42651
337.084	2.43951
336.902	2.44728
336.636	2.44943
335.041	2.44769
334.948	2.4323
334.785	2.44769
334.522	2.44769
334.248	2.44768
333.976	2.37305
333.634	2.34846
333.068	2.31107
332.816	2.30593
332.642	2.28812
332.412	2.30763
332.253	2.31141
331.764	2.24532
331.329	2.24366
330.694	2.24834
330.213	2.26515
329.563	2.31272
329.372	2.31535
329.023	2.34093
328.791	2.37296
328.397	2.38219
327.889	2.38599
327.513	2.39074
327.511	2.40854
327.001	2.38012
326.575	2.32227
326.286	2.29041
326.134	2.28425
325.625	2.28253
325.197	2.28516
324.86	2.28935
324.611	2.29517
324.25	2.31263
324.065	2.31526
323.818	2.3246
323.505	2.34103
323.123	2.34992
323.034	2.35814
322.909	2.3636
322.741	2.366
322.622	2.3749
322.051	2.39848
321.555	2.40912
321.153	2.4139
320.426	2.41389
320.263	2.41252
320.029	2.40294
319.704	2.38546
318.989	2.3074
318.666	2.29542
318.258	2.27418
317.792	2.24336
317.31	2.23992
316.508	2.24206
315.78	2.26647
315.161	2.29329
314.705	2.33196
314.472	2.33916
314.117	2.34335
313.646	2.34461
312.819	2.33364
312.529	2.32438
312.035	2.31376
311.333	2.30177
310.298	2.30004
308.925	2.3129
308.114	2.3228
306.906	2.3479
306.346	2.36741
306.132	2.37082
305.835	2.38242
305.128	2.41154
304.807	2.43995
304.658	2.44236
304.509	2.45193
304.361	2.46836
304.128	2.47212
303.833	2.55235
303.629	2.58997
303.466	2.59261
303.146	2.67066
302.997	2.68582
302.733	2.73432
302.252	2.83878
301.822	2.92721
301.394	3.01319
300.917	3.1103
300.593	3.17223
300.301	3.22211
299.821	3.34703
299.434	3.41419
299.095	3.45796
298.159	3.45622
297.876	3.44927
297.674	3.44148
297.534	3.43293
297.011	3.42231
296.448	3.42367
296.028	3.42709
295.748	3.43289
295.444	3.49862
294.882	3.58145
294.332	3.67378
293.781	3.76972
293.512	3.79826
293.338	3.83246
293.264	3.85495
293.048	3.85871
292.893	3.89715
292.588	3.92889
292.241	3.94564
291.522	3.94563
291.308	3.92927
291.17	3.91779
291.021	3.91515
290.927	3.88502
290.735	3.86754
290.576	3.85752
290.428	3.85488
290.332	3.84256
289.411	3.78571
288.847	3.74862
288.658	3.73092
288.45	3.72715
288.331	3.71071
288.199	3.70137
288.053	3.69872
287.772	3.67578
287.39	3.65693
286.902	3.64084
286.309	3.62782
285.917	3.62952
285.656	3.63431
285.408	3.63714
285.154	3.63841
284.672	3.64558
284.296	3.65732
283.733	3.67089
282.942	3.68799
282.759	3.69518
282.249	3.70442
281.939	3.71159
281.813	3.71638
280.783	3.73074
279.919	3.72846
279.614	3.72169
279.299	3.71461
278.643	3.70912
278.284	3.7121
277.742	3.71628
277.549	3.7197
277.372	3.7375
277.248	3.73991
277.09	3.75291
276.914	3.77652
276.721	3.78028
276.088	3.8413
275.945	3.85567
275.811	3.85831
275.549	3.88843
274.954	3.93781
274.594	3.97024
274.474	3.98563
274.284	3.98939
273.86	4.02645
273.545	4.0414
273.306	4.04619
272.508	4.04446
272.402	4.03966
272.199	4.03622
271.9	4.03383
269.977	3.99818
269.579	3.99338
269.016	3.99052
268.276	3.98923
267.931	3.99641
267.702	3.99745
267.424	4.00155
267.082	4.00872
266.919	4.0159
266.464	4.0241
266.188	4.03231
266.075	4.04053
265.897	4.046
265.795	4.05764
265.654	4.06653
265.477	4.07269
264.978	4.10452
264.234	4.14261
263.774	4.16817
263.651	4.17877
262.827	4.21777
262.727	4.23293
262.616	4.24243
262.495	4.24618
262.337	4.26055
262.238	4.26159
261.663	4.288
261.037	4.32077
260.959	4.32932
260.849	4.33173
260.71	4.34063
260.554	4.35602
259.749	4.39502
259.64	4.40564
259.482	4.41566
259.271	4.42513
258.873	4.43574
258.826	4.44053
258.648	4.44412
257.837	4.44461
257.443	4.44117
257.137	4.43295
256.72	4.42927
256.195	4.43052
255.971	4.43565
255.761	4.44523
255.607	4.45106
255.493	4.45344
255.269	4.4661
255.06	4.47167
254.937	4.47809
254.882	4.48526
254.719	4.48902
254.525	4.49939
254.348	4.50716
254.186	4.51194
252.892	4.57216
252.688	4.57798
252.122	4.60362
251.078	4.64845
250.934	4.66077
250.689	4.66771
250.241	4.67136
249.59	4.67134
249.293	4.65558
249.052	4.65205
248.837	4.64665
248.643	4.63947
246.466	4.57915
246.272	4.57699
245.844	4.57503
245.171	4.57364
244.678	4.588
244.4	4.59973
244.133	4.60699
243.684	4.60748
242.285	4.57355
242.244	4.56908
242.084	4.56385
241.805	4.55778
241.114	4.53653
241.031	4.53174
240.889	4.5283
240.704	4.52591
240.56	4.517
