Uv/Vis Spectrum: 5-Chloro-2-hydroxybenzophenone
Formula: C13H9ClO2
CAS: 85-19-8
Melting point: 93-94
Instrument: Unicam SP 500
Origin: INSTITUTE OF ENERGY PROBLEMS OF CHEMICAL PHYSICS, RAS
Wavelength (nm)	Logarithm epsilon
213.32	4.208
214.85	4.208
216.39	4.215
217.75	4.232
219.12	4.249
220.32	4.269
221.85	4.276
223.39	4.279
224.93	4.273
226.29	4.256
227.66	4.239
228.85	4.218
229.88	4.198
230.73	4.174
231.75	4.151
232.44	4.124
233.29	4.1
234.14	4.073
235.17	4.049
236.19	4.029
237.22	4.009
238.41	3.992
239.78	3.982
241.31	3.971
242.85	3.968
244.39	3.971
245.92	3.971
247.29	3.982
248.83	3.988
250.19	4.002
251.56	4.015
253.09	4.022
254.63	4.026
256	4.036
257.53	4.036
259.07	4.036
260.61	4.029
262.14	4.026
263.51	4.012
264.87	3.998
266.24	3.985
267.43	3.968
268.63	3.951
269.82	3.934
270.85	3.914
271.87	3.894
272.9	3.873
273.75	3.85
274.78	3.826
275.8	3.802
276.65	3.775
277.51	3.751
278.19	3.724
279.04	3.701
279.9	3.674
280.58	3.647
281.26	3.619
281.95	3.592
282.8	3.565
283.48	3.538
284.17	3.511
284.85	3.484
285.7	3.46
286.38	3.433
287.24	3.406
288.09	3.379
288.77	3.352
289.63	3.328
290.48	3.301
291.34	3.278
292.02	3.251
292.87	3.227
293.55	3.2
294.41	3.176
295.26	3.153
296.12	3.129
296.97	3.102
297.82	3.078
298.85	3.058
299.87	3.034
300.9	3.014
302.26	2.997
303.8	2.987
305.33	2.994
306.7	3.007
308.07	3.024
309.26	3.041
310.29	3.061
311.48	3.081
312.5	3.102
313.36	3.125
314.72	3.142
315.41	3.169
316.43	3.19
317.46	3.21
318.65	3.23
319.68	3.251
320.7	3.274
321.89	3.295
323.09	3.315
324.28	3.332
325.48	3.352
326.67	3.369
327.87	3.386
329.24	3.403
330.6	3.416
331.97	3.433
333.33	3.444
334.7	3.457
336.06	3.467
337.6	3.477
338.97	3.488
340.5	3.494
341.87	3.504
343.41	3.508
344.94	3.518
346.48	3.521
348.01	3.521
349.55	3.525
351.09	3.518
352.62	3.511
354.16	3.511
355.53	3.501
357.06	3.491
358.43	3.477
359.79	3.46
361.16	3.447
362.53	3.433
363.72	3.413
364.92	3.396
366.11	3.376
367.31	3.359
368.5	3.339
369.7	3.318
370.89	3.298
371.92	3.278
372.77	3.254
373.79	3.234
374.82	3.21
375.67	3.186
376.7	3.163
377.55	3.139
378.4	3.115
379.26	3.092
380.11	3.068
380.96	3.044
381.82	3.021
382.5	2.994
383.35	2.97
384.21	2.943
384.89	2.916
385.57	2.889
386.26	2.862
387.11	2.834
387.62	2.807
388.48	2.78
389.16	2.753
389.84	2.726
390.52	2.699
391.21	2.672
391.89	2.645
392.74	2.621
393.26	2.594
393.94	2.567
394.62	2.54
395.13	2.513
395.82	2.486
396.33	2.459
396.84	2.432
397.52	2.405
398.04	2.378
398.72	2.351
399.4	2.324
399.91	2.296
400.43	2.269
401.11	2.242
401.62	2.215
402.13	2.188
402.82	2.161
403.33	2.134
403.84	2.107
404.52	2.08
405.04	2.053
405.55	2.026
406.06	1.999
406.74	1.972
407.43	1.945
407.94	1.918
408.45	1.89
408.96	1.863
409.64	1.836
410.16	1.809
410.67	1.782
411.18	1.755
411.69	1.728
412.21	1.701
412.72	1.674
413.23	1.647
413.74	1.62
414.42	1.593
414.94	1.562
415.45	1.535
415.96	1.505
416.47	1.478
416.99	1.451
417.5	1.42
418.01	1.393
418.52	1.366
419.03	1.336
