Uv/Vis Spectrum: 2,4'-Dichlorobenzophenone
Formula: C13H8Cl2O
CAS: 85-29-0
Melting point: 67
Boiling point: 214-5(22)
Instrument: Beckman DU
Origin: INSTITUTE OF ENERGY PROBLEMS OF CHEMICAL PHYSICS, RAS
Wavelength (nm)	Logarithm epsilon
225.046	4.44888
225.046	4.44888
225.166	4.44721
225.227	4.44949
225.285	4.44551
225.404	4.44375
225.414	4.45005
225.617	4.45057
226.986	4.44313
227.168	4.44311
227.367	4.44308
227.572	4.44306
227.572	4.44306
227.579	4.44369
227.585	4.44428
227.591	4.44484
229.272	4.44376
229.617	4.4403
230.292	4.43615
231.185	4.43226
232.244	4.42452
232.874	4.41922
233.495	4.41386
234.132	4.4085
234.81	4.4032
235.554	4.39802
236.387	4.39303
237.334	4.3883
238.42	4.38391
239.67	4.37992
241.107	4.37643
242.758	4.37349
242.758	4.37349
245.107	4.3721
247.467	4.3707
249.833	4.3693
252.201	4.36789
252.201	4.36789
253.608	4.36246
254.948	4.35698
256.241	4.35136
257.504	4.3455
258.755	4.33932
260.013	4.3327
261.294	4.32555
261.294	4.32555
262.825	4.31206
263.624	4.30555
264.375	4.30072
265.463	4.28957
266.325	4.281
267.542	4.27212
269.131	4.26434
271.109	4.2592
271.518	4.25845
272.181	4.2593
272.852	4.26008
273.537	4.26082
275.445	4.26689
276.833	4.27301
278.365	4.27992
279.996	4.28692
281.681	4.29335
283.375	4.29856
285.032	4.30196
285.628	4.3031
286.259	4.305
287.203	4.30668
289.27	4.30956
289.27	4.30956
290.573	4.30791
291.892	4.30544
293.219	4.3022
294.55	4.29829
295.877	4.29375
297.195	4.28867
298.499	4.28311
299.782	4.27714
301.037	4.27083
302.26	4.26427
303.445	4.25754
304.584	4.25072
305.673	4.24392
306.705	4.23723
307.675	4.23076
308.576	4.22462
309.403	4.21893
309.403	4.21893
311.5	4.21493
313.257	4.21053
314.88	4.20532
316.575	4.19886
318.549	4.1907
318.549	4.1907
320.862	4.1878
323.174	4.18481
325.487	4.18178
327.799	4.1787
327.799	4.1787
329.036	4.17447
330.255	4.16948
331.453	4.16375
332.631	4.15732
333.787	4.15023
334.921	4.1425
336.032	4.13417
337.119	4.12528
338.181	4.11586
339.217	4.10596
340.226	4.09562
341.208	4.08488
342.161	4.0738
343.086	4.06244
343.98	4.05086
344.843	4.03914
345.674	4.02735
346.473	4.01559
347.238	4.00397
347.968	3.99258
347.968	3.99258
349.038	3.97255
349.934	3.95499
350.695	3.9394
351.358	3.92516
351.962	3.91152
352.546	3.89762
353.149	3.88248
353.809	3.865
354.564	3.84383
355.453	3.81735
356.514	3.78336
356.514	3.78336
357.382	3.7597
358.286	3.73534
359.227	3.71014
360.204	3.68393
361.216	3.65649
362.264	3.62756
363.346	3.59682
364.462	3.56387
365.611	3.5282
366.793	3.48914
368.008	3.44583
370.071	3.36828
370.753	3.34693
371.449	3.32412
372.153	3.29935
