Uv/Vis Spectrum: Methanone, bis(pentafluorophenyl)-
Formula: C13F10O
CAS: 853-39-4
Melting point: 91-92
Instrument: Spectrophotometer SF-16
Origin: INSTITUTE OF ENERGY PROBLEMS OF CHEMICAL PHYSICS, RAS
Wavelength (nm)	Logarithm epsilon
220	3.83
221	3.84
222	3.83
223	3.83
224	3.82
225	3.82
226	3.81
227	3.81
228	3.82
229	3.83
230	3.83
231	3.85
232	3.87
233	3.9
234	3.92
235	3.94
236	3.96
237	3.98
238	4
239	4.02
240	4.04001
241	4.06
242	4.08
243	4.1
244	4.12
245	4.13
246	4.14
247	4.13
248	4.13
249	4.13
250	4.12001
251	4.11
252	4.09
253	4.07
254	4.04
255	4.01
256	3.99
257	3.96
258	3.94
259	3.9
260	3.87
261	3.83
262	3.8
263	3.76
264	3.73
265	3.69
266	3.66
267	3.63
268	3.6
269	3.57
270	3.54
271	3.51
272	3.49
273	3.49
274	3.48
275	3.47
276	3.45
277	3.44
278	3.44
279	3.44
280	3.42999
281	3.42
282	3.41
283	3.41
284	3.39
285	3.38
286	3.37
287	3.35
288	3.33
289	3.31
290	3.30001
291	3.28
292	3.26
293	3.25
294	3.23
295	3.19
296	3.18
297	3.14
298	3.1
299	3.06
