Uv/Vis Spectrum: Phthalic anhydride
Formula: C8H4O3
CAS: 85-44-9
Melting point: 130.8
Boiling point: 295
Instrument: Carl Zeiss spectrophotometer
Origin: INSTITUTE OF ENERGY PROBLEMS OF CHEMICAL PHYSICS, RAS
Wavelength (nm)	Logarithm epsilon
255.839	3.27101
255.882	3.27459
255.914	3.27799
255.94	3.28129
255.94	3.28129
256.903	3.30431
257.749	3.32158
259.2	3.34789
259.2	3.34789
259.655	3.35034
260.11	3.3527
260.565	3.35488
260.565	3.35488
261.326	3.35476
261.818	3.35391
262.461	3.35159
262.461	3.35159
262.782	3.34513
263.091	3.33886
263.396	3.33268
263.396	3.33268
264.129	3.30474
264.861	3.27689
265.594	3.24923
265.594	3.24923
265.94	3.21025
266.281	3.17128
266.619	3.13231
266.954	3.09334
267.288	3.05436
267.288	3.05436
267.604	3.03902
267.932	3.02751
268.551	3.00996
268.551	3.00996
268.727	3.00926
268.898	3.00875
269.057	2.99475
269.057	2.99475
269.057	2.99928
269.057	3.0038
269.057	3.00832
269.057	3.00832
269.608	2.98094
270.047	2.97252
270.75	2.96228
270.75	2.96228
271.722	2.96008
272.878	2.96008
273.783	2.96228
273.783	2.96228
274.651	2.97277
275.307	2.98289
276.31	3.00133
276.31	3.00133
276.663	3.01519
277.01	3.02886
277.346	3.04244
277.346	3.04244
277.523	3.04366
277.7	3.04479
277.877	3.04573
277.877	3.04573
278.187	3.05127
278.351	3.05746
278.509	3.06957
278.509	3.06957
279.317	3.09135
280.126	3.11303
280.935	3.13453
280.935	3.13453
281.112	3.13575
281.289	3.13687
281.466	3.13782
281.466	3.13782
282.015	3.15091
282.559	3.162
283.563	3.18057
283.563	3.18057
284.097	3.18751
284.883	3.2035
286.596	3.24224
286.596	3.24224
286.909	3.25609
287.21	3.26675
287.758	3.28335
287.758	3.28335
288.036	3.28569
288.314	3.28785
288.592	3.28993
288.592	3.28993
288.971	3.28871
289.351	3.28758
289.73	3.28664
289.73	3.28664
290.266	3.27121
291.24	3.24629
292.687	3.20812
292.687	3.20812
293.083	3.20742
293.469	3.2069
293.849	3.20647
293.849	3.20647
294.271	3.21221
294.682	3.21786
295.087	3.22333
295.087	3.22333
295.103	3.22849
295.215	3.23201
295.517	3.23689
295.517	3.23689
296.047	3.27513
296.571	3.31336
297.084	3.35159
297.084	3.35159
297.413	3.35817
297.438	3.35159
297.471	3.36105
297.54	3.36392
297.615	3.3668
297.792	3.35159
297.817	3.35652
297.817	3.3587
297.817	3.36106
297.817	3.36351
298.145	3.35159
298.145	3.35159
298.423	3.32982
298.701	3.30814
298.979	3.28664
298.979	3.28664
299.055	3.26406
299.15	3.24098
299.264	3.21612
299.399	3.18824
299.557	3.15605
299.74	3.1183
299.947	3.07371
300.182	3.02103
300.445	2.95899
300.445	2.95899
300.579	2.95249
300.755	2.93324
301.092	2.88586
301.709	2.79496
301.709	2.79496
301.825	2.74854
301.918	2.71023
301.991	2.67789
302.046	2.64939
302.085	2.6226
302.111	2.5954
302.127	2.56564
302.135	2.53121
302.138	2.48996
302.139	2.43977
302.139	2.43977
302.377	2.39884
302.583	2.36394
302.764	2.33371
302.929	2.30677
303.09	2.28175
303.254	2.25729
303.431	2.23201
303.63	2.20456
303.862	2.17355
304.135	2.13762
304.459	2.0954
304.843	2.04552
304.843	2.04552
305.045	2.01334
305.226	1.9852
305.391	1.95979
305.546	1.93582
305.699	1.91197
305.853	1.88694
306.017	1.85943
306.194	1.82812
306.392	1.79173
306.616	1.74894
306.873	1.69844
307.168	1.63894
307.168	1.63894
307.281	1.62528
307.391	1.61256
307.521	1.59874
307.693	1.58179
307.929	1.5597
308.25	1.53043
308.679	1.49195
309.238	1.44224
309.948	1.37927
310.832	1.30102
310.832	1.30102
310.983	1.29856
311.128	1.2962
311.262	1.29403
311.262	1.29403
311.792	1.25016
312.316	1.20648
312.829	1.16288
312.829	1.16288
313.107	1.12056
313.385	1.07832
313.663	1.03627
313.663	1.03627
313.981	1.0084
314.204	0.972592
314.522	0.898138
314.522	0.898138
314.666	0.895257
314.799	0.892378
314.926	0.889503
314.926	0.889503
315.293	0.853388
315.657	0.817274
316.019	0.781181
316.379	0.745106
316.738	0.709058
317.096	0.673049
317.454	0.637089
317.454	0.637089
317.871	0.603794
318.228	0.575465
318.548	0.550485
318.853	0.527204
319.167	0.503995
319.51	0.479244
319.908	0.45128
320.381	0.4185
320.953	0.379269
321.646	0.331953
322.483	0.274896
322.483	0.274896
323.162	0.240125
323.837	0.20534
324.508	0.170555
325.177	0.1358
325.844	0.101025
325.844	0.101025
325.931	0.092089
326.069	0.087178
326.375	0.082103
326.375	0.082103
326.62	0.065318
326.921	0.051577
