Uv/Vis Spectrum: 1-Naphthalenesulfonic acid
Formula: C10H8O3S
CAS: 85-47-2
Melting point: 140
Instrument: n.i.g.
Origin: INSTITUTE OF ENERGY PROBLEMS OF CHEMICAL PHYSICS, RAS
Wavelength (nm)	Logarithm epsilon
200.615	4.28562
200.724	4.28847
200.724	4.28847
201.011	4.30721
201.265	4.32382
201.496	4.33903
201.715	4.35358
201.933	4.3682
202.16	4.38363
202.407	4.40059
202.685	4.41982
203.003	4.44206
203.374	4.46804
203.806	4.4985
204.312	4.53416
204.902	4.57576
205.585	4.62404
205.585	4.62404
205.946	4.64627
206.297	4.66866
206.65	4.69031
207.015	4.71034
207.406	4.72788
207.832	4.74202
208.306	4.75189
208.84	4.75661
209.445	4.75528
209.445	4.75528
209.772	4.72932
210.042	4.70275
210.267	4.67547
210.457	4.64734
210.621	4.61824
210.772	4.58805
210.918	4.55664
211.071	4.5239
211.071	4.5239
211.158	4.49609
211.245	4.4683
211.332	4.44053
211.419	4.41278
211.506	4.38505
211.593	4.35733
211.68	4.32964
211.767	4.30195
211.854	4.27428
211.941	4.24662
212.029	4.21898
212.116	4.19134
212.203	4.16371
212.29	4.13609
212.377	4.10847
212.464	4.08085
212.551	4.05325
212.638	4.02564
212.725	3.99803
212.812	3.97042
212.899	3.94281
212.985	3.91519
213.072	3.88757
213.158	3.85995
213.245	3.83231
213.331	3.80467
213.417	3.77702
213.503	3.74935
213.589	3.72168
213.675	3.69399
213.76	3.66628
213.846	3.63856
213.931	3.61082
214.016	3.58306
214.101	3.55528
214.186	3.52748
214.27	3.49966
214.355	3.47181
214.439	3.44393
214.523	3.41603
214.606	3.3881
214.606	3.3881
214.724	3.35932
214.836	3.33028
214.949	3.30109
215.065	3.27185
215.189	3.24265
215.326	3.2136
215.481	3.18479
215.657	3.15632
215.86	3.1283
216.093	3.1008
216.361	3.07395
216.668	3.04783
217.019	3.02254
217.117	3.02027
217.583	3.02484
217.967	3.03217
218.392	3.04487
218.392	3.04487
218.715	3.07061
219.039	3.09632
219.362	3.12199
219.686	3.14763
220.011	3.17325
220.335	3.19885
220.661	3.22444
220.987	3.25002
221.313	3.27559
221.313	3.27559
221.954	3.32121
222.546	3.36308
223.09	3.40135
223.587	3.43611
224.037	3.46751
224.443	3.49565
224.804	3.52067
225.123	3.54267
225.399	3.56179
225.633	3.57815
225.827	3.59185
225.982	3.60304
226.098	3.61183
226.176	3.61834
226.176	3.61834
226.265	3.62049
226.355	3.62264
226.451	3.62479
226.451	3.62479
226.834	3.64754
227.213	3.66935
227.59	3.69013
227.97	3.70978
228.356	3.7282
228.751	3.7453
229.158	3.76097
229.582	3.77511
230.024	3.78764
230.49	3.79844
230.982	3.80743
231.503	3.8145
232.058	3.81955
232.649	3.82249
233.279	3.82322
233.279	3.82322
233.95	3.80413
234.516	3.78636
235.018	3.76812
235.499	3.74759
236.002	3.72296
236.571	3.69243
236.571	3.69243
236.959	3.66023
237.342	3.62753
237.716	3.59493
238.076	3.56305
238.416	3.53249
238.732	3.50388
239.019	3.47783
239.273	3.45494
239.488	3.43583
