Uv/Vis Spectrum: 1,1'-Biphenyl, 2-nitro-
Formula: C12H9NO2
CAS: 86-00-0
Melting point: 37.2
Boiling point: 320
Instrument: n.i.g.
Origin: INSTITUTE OF ENERGY PROBLEMS OF CHEMICAL PHYSICS, RAS
Wavelength (nm)	Logarithm epsilon
414.919	1.0548
414.42	1.08749
413.714	1.12
412.837	1.15238
411.823	1.18463
410.705	1.21677
409.518	1.24884
408.294	1.28086
407.065	1.31284
405.864	1.34482
404.72	1.37681
403.663	1.40883
402.724	1.44092
401.93	1.47309
401.312	1.50536
400.897	1.53777
400.897	1.53777
399.298	1.5781
397.928	1.61298
396.736	1.64364
395.675	1.67132
394.697	1.69724
393.755	1.72265
392.805	1.74878
391.802	1.77686
390.703	1.80812
389.464	1.84381
388.046	1.88516
386.409	1.93339
384.516	1.98975
384.516	1.98975
381.163	2.07204
378.782	2.13171
377.17	2.17334
376.143	2.20148
375.524	2.22071
375.146	2.23558
374.84	2.25066
374.84	2.25066
371.94	2.31524
369.834	2.36306
368.309	2.39864
367.167	2.42649
366.218	2.45113
365.275	2.47708
364.157	2.50885
364.157	2.50885
359.809	2.59321
356.606	2.65678
354.338	2.70271
352.822	2.73417
351.888	2.75431
351.379	2.76629
351.144	2.77327
351.032	2.77842
351.032	2.77842
349.24	2.80838
347.485	2.83795
345.76	2.86715
344.056	2.896
342.365	2.92453
340.68	2.95278
338.993	2.98077
337.297	3.00853
335.587	3.03608
333.855	3.06346
332.095	3.0907
330.302	3.11781
330.302	3.11781
328.278	3.14321
326.279	3.16853
324.303	3.19379
322.352	3.21901
320.423	3.2442
318.518	3.26937
318.518	3.26937
316.854	3.28399
315.092	3.29919
313.252	3.31449
311.353	3.32937
309.414	3.34334
307.452	3.3559
305.484	3.36653
303.527	3.37475
301.595	3.38005
299.703	3.38192
297.865	3.37987
296.095	3.37339
294.404	3.36199
292.804	3.34515
292.804	3.34515
290.666	3.33952
288.654	3.33645
286.754	3.33583
284.951	3.33749
283.234	3.34129
281.59	3.3471
280.008	3.35477
278.478	3.36415
276.988	3.37511
275.53	3.38749
274.092	3.40116
272.667	3.41597
271.246	3.43178
269.819	3.44844
268.38	3.46582
266.92	3.48376
265.432	3.50213
265.432	3.50213
264.173	3.52264
262.931	3.54324
261.703	3.56391
260.491	3.58466
259.293	3.60549
258.109	3.6264
256.94	3.64738
255.783	3.66844
254.639	3.68957
253.508	3.71078
252.389	3.73206
251.282	3.75342
250.187	3.77485
249.103	3.79636
248.029	3.81793
246.966	3.83958
245.913	3.8613
244.87	3.88309
243.837	3.90495
242.813	3.92688
241.798	3.94888
240.792	3.97095
239.794	3.99308
239.794	3.99308
238.287	4.01506
236.941	4.03687
235.619	4.05669
234.189	4.07266
232.528	4.08294
232.528	4.08294
230.76	4.07999
229.373	4.07723
228.241	4.07463
227.244	4.07218
226.271	4.06985
225.21	4.06764
223.956	4.06551
222.409	4.06345
222.409	4.06345
222.258	4.05926
222.111	4.05772
221.842	4.0575
