Uv/Vis Spectrum: 9H-Carbazole, 9-ethyl-
Formula: C14H13N
CAS: 86-28-2
Melting point: 247-248
Instrument: Cary 11
Origin: INSTITUTE OF ENERGY PROBLEMS OF CHEMICAL PHYSICS, RAS
Wavelength (nm)	Logarithm epsilon
213.85	4.456
214	4.456
214.16	4.456
214.32	4.455
214.47	4.452
215.1	4.45
215.73	4.449
216.36	4.448
216.99	4.447
217.62	4.447
218.25	4.449
218.88	4.455
219.51	4.459
220.14	4.462
220.77	4.466
221.39	4.47
222.02	4.475
222.65	4.479
223.28	4.483
223.91	4.487
224.54	4.492
225.17	4.502
225.8	4.517
226.43	4.535
227.06	4.544
227.69	4.553
228.31	4.557
228.94	4.561
229.57	4.563
230.2	4.567
230.83	4.577
231.46	4.584
232.09	4.591
232.72	4.596
233.35	4.6
233.98	4.597
234.61	4.578
235.23	4.559
235.86	4.536
236.49	4.51
237.12	4.482
237.75	4.453
238.38	4.431
239.01	4.417
239.64	4.404
240.27	4.396
240.9	4.39
241.53	4.385
242.15	4.381
242.78	4.378
243.41	4.375
244.04	4.37
244.67	4.366
245.3	4.356
245.93	4.347
246.56	4.334
247.19	4.319
247.82	4.299
248.45	4.266
249.07	4.23
249.7	4.205
250.33	4.191
250.96	4.189
251.59	4.189
252.22	4.192
252.85	4.199
253.48	4.205
254.11	4.212
254.74	4.22
255.37	4.225
255.99	4.23
256.62	4.226
257.25	4.21
257.88	4.176
258.51	4.145
259.14	4.101
259.77	4.032
260.4	3.975
261.03	3.951
261.66	3.931
262.29	3.884
262.91	3.836
263.54	3.785
264.17	3.734
264.8	3.687
265.43	3.654
266.06	3.634
266.69	3.622
267.32	3.609
268.58	3.587
269.21	3.587
269.83	3.587
271.09	3.592
272.35	3.613
272.98	3.63
273.61	3.65
274.24	3.672
274.87	3.691
275.5	3.721
276.13	3.747
276.75	3.774
277.38	3.802
278.01	3.826
278.64	3.851
279.27	3.882
279.9	3.91
280.53	3.935
281.16	3.953
281.79	3.972
282.42	3.988
283.05	4.004
283.68	4.016
284.3	4.03
284.93	4.04
285.56	4.051
286.19	4.062
286.82	4.074
287.45	4.082
288.08	4.094
288.71	4.105
289.34	4.117
289.97	4.134
290.6	4.146
291.22	4.163
291.85	4.169
292.48	4.152
293.11	4.121
293.74	4.088
294.37	4.038
295	3.997
295.63	3.941
296.26	3.882
296.89	3.794
297.52	3.715
298.14	3.665
298.77	3.618
299.4	3.583
300.03	3.54
300.66	3.509
301.29	3.487
301.92	3.47
302.55	3.452
303.18	3.446
303.81	3.433
304.44	3.426
305.06	3.42
305.69	3.42
306.32	3.42
306.95	3.42
307.58	3.42
308.21	3.42
310.1	3.426
313.24	3.446
313.87	3.452
314.5	3.464
315.13	3.47
317.65	3.498
318.28	3.503
318.9	3.509
319.53	3.519
320.16	3.525
320.79	3.53
321.42	3.535
322.05	3.545
322.68	3.545
323.31	3.55
323.94	3.55
324.57	3.55
325.2	3.545
325.82	3.535
326.45	3.53
327.08	3.525
327.71	3.503
328.34	3.475
328.97	3.464
329.6	3.446
330.23	3.439
331.49	3.433
332.12	3.433
332.74	3.433
334	3.439
334.63	3.446
335.26	3.446
335.89	3.446
336.52	3.439
337.15	3.433
337.78	3.42
338.41	3.406
339.04	3.378
