Uv/Vis Spectrum: 1-Naphthalenecarboxylic acid
Formula: C11H8O2
CAS: 86-55-5
Melting point: 160
Instrument: Ziess PMQ II
Origin: INSTITUTE OF ENERGY PROBLEMS OF CHEMICAL PHYSICS, RAS
Wavelength (nm)	Logarithm epsilon
201.34	4.278
201.78	4.295
202.31	4.308
202.84	4.321
203.28	4.336
203.81	4.348
204.35	4.361
204.89	4.376
205.34	4.391
205.98	4.404
206.53	4.419
207.08	4.431
207.64	4.444
208.19	4.457
208.75	4.47
209.32	4.485
209.98	4.495
210.45	4.51
211.12	4.523
211.7	4.538
212.18	4.553
212.86	4.566
213.35	4.583
213.94	4.595
214.53	4.61
215.03	4.627
215.63	4.642
216.03	4.659
216.53	4.674
216.93	4.691
217.44	4.706
217.85	4.723
218.36	4.738
218.98	4.753
219.6	4.768
220.33	4.779
221.06	4.791
221.8	4.802
222.54	4.815
223.18	4.828
224.04	4.836
224.91	4.83
225.56	4.817
226	4.8
226.22	4.781
226.44	4.762
226.66	4.742
227	4.725
227.22	4.706
227.44	4.687
227.66	4.668
227.89	4.649
228.11	4.629
228.33	4.61
228.56	4.591
228.78	4.572
229.01	4.553
229.12	4.534
229.35	4.514
229.57	4.495
229.69	4.476
229.91	4.457
230.14	4.438
230.37	4.419
230.6	4.399
230.83	4.38
230.94	4.361
231.17	4.342
231.4	4.323
231.52	4.304
231.75	4.285
231.98	4.265
232.21	4.246
232.44	4.227
232.56	4.208
232.79	4.189
233.14	4.17
233.38	4.15
233.61	4.131
233.73	4.112
233.96	4.093
234.32	4.076
234.55	4.057
234.79	4.037
235.03	4.018
235.26	3.999
235.5	3.98
235.74	3.961
235.98	3.942
236.22	3.923
236.46	3.903
236.7	3.884
236.82	3.865
237.18	3.848
237.43	3.829
237.67	3.81
237.91	3.79
238.16	3.771
238.4	3.752
238.65	3.733
239.01	3.714
239.14	3.695
239.51	3.675
239.63	3.656
239.88	3.637
240.12	3.618
240.37	3.599
240.75	3.58
241	3.561
241.37	3.541
241.62	3.522
242	3.503
242.25	3.484
242.5	3.465
242.88	3.448
243.26	3.428
243.52	3.409
243.77	3.39
244.16	3.373
244.54	3.354
244.93	3.335
245.32	3.316
245.71	3.296
246.1	3.279
246.62	3.262
247.14	3.245
247.67	3.228
248.6	3.216
249.8	3.216
250.88	3.224
251.69	3.239
252.37	3.254
253.2	3.269
253.89	3.284
254.72	3.299
255.28	3.316
256.13	3.331
256.69	3.348
257.26	3.365
257.83	3.382
258.41	3.399
258.98	3.416
259.41	3.433
259.85	3.45
260.43	3.467
260.87	3.484
261.46	3.501
262.19	3.518
263.08	3.531
263.98	3.546
264.73	3.561
265.49	3.578
266.09	3.595
266.86	3.612
267.47	3.629
268.09	3.646
268.71	3.663
269.49	3.68
269.96	3.697
270.58	3.714
271.37	3.729
272.17	3.746
273.29	3.759
274.58	3.767
275.88	3.778
277.03	3.788
278.03	3.801
279.36	3.812
280.54	3.822
281.56	3.837
282.59	3.85
284.14	3.852
285.54	3.846
286.42	3.831
287.84	3.82
289.27	3.812
290.53	3.801
291.63	3.788
292.73	3.776
294.02	3.763
295.14	3.75
296.27	3.735
297.03	3.718
297.6	3.699
297.98	3.68
298.56	3.663
298.94	3.644
299.32	3.624
299.71	3.605
300.1	3.586
300.48	3.567
300.87	3.548
301.46	3.531
301.85	3.512
302.05	3.492
302.44	3.473
302.83	3.454
303.43	3.437
303.82	3.418
304.22	3.399
304.62	3.379
305.02	3.36
305.42	3.341
305.82	3.322
306.22	3.303
306.43	3.284
306.83	3.265
307.23	3.245
307.64	3.226
307.85	3.207
308.05	3.188
308.46	3.169
308.66	3.15
309.07	3.13
309.48	3.111
309.9	3.092
310.1	3.073
310.52	3.054
310.93	3.035
311.35	3.015
311.56	2.996
312.19	2.979
312.61	2.96
313.03	2.941
313.66	2.922
314.3	2.905
316.43	2.83
316.87	2.811
317.3	2.792
317.73	2.773
318.17	2.753
318.6	2.734
318.82	2.715
319.26	2.696
319.48	2.677
319.92	2.658
320.14	2.638
320.58	2.619
320.8	2.6
321.24	2.581
321.47	2.562
321.69	2.543
321.91	2.523
322.36	2.504
322.58	2.485
323.03	2.466
323.25	2.447
323.48	2.428
323.7	2.408
324.15	2.37
324.15	2.389
