Uv/Vis Spectrum: Fluorene
Formula: C13H10
CAS: 86-73-7
Melting point: 114.8
Boiling point: 295
Instrument: n.i.g.
Origin: INSTITUTE OF ENERGY PROBLEMS OF CHEMICAL PHYSICS, RAS
Wavelength (nm)	Logarithm epsilon
316.362	1.2828
316.359	1.30247
316.317	1.27978
316.176	1.32408
315.758	1.37891
315.753	1.4032
315.023	1.45579
314.892	1.57048
314.889	1.587
314.789	1.51145
314.664	1.58801
314.228	1.64307
313.949	1.71278
313.725	1.71951
313.633	1.73445
313.513	1.78529
313.349	1.83857
313.237	1.84194
313.147	1.85003
312.844	1.89894
312.761	1.90129
312.645	1.93434
312.253	1.98795
312.154	2.0915
312.092	2.06148
312.048	2.06553
312.037	2.13535
312.035	2.14692
312.004	2.06596
311.96	2.06655
311.916	2.06721
311.885	2.11478
311.797	2.1178
311.796	2.12825
311.61	2.18019
311.425	2.20177
311.337	2.24022
311.095	2.2473
310.954	2.26348
310.795	2.29721
310.618	2.34847
310.395	2.37646
310.17	2.38219
310.014	2.40444
309.927	2.44289
309.707	2.45671
309.702	2.48707
309.633	2.50563
309.562	2.50909
309.481	2.51269
309.409	2.51505
309.342	2.56699
309.274	2.57981
309.239	2.53022
309.236	2.55114
309.116	2.61927
309.115	2.62839
309.104	2.69482
309.104	2.69955
309.078	2.5896
309.029	2.72047
308.993	2.71539
308.95	2.71135
308.908	2.7073
308.862	2.72416
308.814	2.61453
308.774	2.59666
308.745	2.77812
308.663	2.61217
308.528	2.7852
308.462	2.79094
308.332	2.83295
308.165	2.89886
308.086	2.89413
308.059	2.88875
308.014	2.89885
307.714	2.89412
307.714	2.89884
307.567	2.96872
307.266	3.0163
307.022	3.07691
307.019	3.09445
306.798	3.13965
306.726	3.14783
306.556	3.18887
306.339	3.21315
305.74	3.3414
305.654	3.38448
305.546	3.40033
305.482	3.40135
305.327	3.45091
305.325	3.46305
305.255	3.46349
305.176	3.46407
305.066	3.46025
304.982	3.4961
304.978	3.52072
304.909	3.5532
304.699	3.56602
304.312	3.61143
304.308	3.63234
304.005	3.68967
303.936	3.69415
303.852	3.73722
303.622	3.74092
303.62	3.75239
303.339	3.80476
303.187	3.85256
303.185	3.86672
302.676	3.92371
302.608	3.92819
302.524	3.97328
302.517	4.02027
302.446	3.97598
302.294	3.98542
302.08	4.03095
302.079	4.0414
301.004	4.06116
300.821	4.05585
300.678	4.04303
300.43	4.05854
300.161	3.94688
300.147	4.04132
300.145	4.05382
300.108	4.03357
300.048	4.01838
299.974	4.01131
299.908	4.00431
299.848	3.99746
299.781	3.94181
299.726	3.99408
299.429	3.93808
299.329	3.92593
299.173	3.92333
299.107	3.91986
298.911	3.877
298.81	3.87531
298.737	3.86249
298.458	3.80177
298.293	3.82098
297.974	3.79837
297.972	3.8122
297.676	3.77205
297.603	3.76135
297.538	3.75494
297.458	3.75281
297.226	3.70366
296.654	3.64956
296.558	3.61988
296.406	3.61178
296.303	3.59727
296.246	3.57635
296.029	3.56589
296.028	3.57263
295.083	3.53785
292.377	3.59002
292.161	3.61092
292.097	3.64643
292.033	3.65173
291.951	3.72627
291.88	3.71675
291.744	3.68781
291.712	3.73402
291.64	3.74211
291.446	3.74918
291.118	3.75019
290.754	3.74612
290.356	3.72991
290.355	3.73665
290.221	3.72753
289.491	3.68929
289.373	3.67387
289.165	3.67015
288.192	3.61422
287.352	3.57463
287.221	3.57225
287.037	3.55504
286.258	3.53149
285.999	3.52743
285.499	3.52326
285.112	3.52324
283.096	3.54407
282.842	3.54989
282.259	3.5791
282.167	3.58787
281.966	3.59518
281.062	3.64315
280.023	3.69098
280.022	3.69773
279.896	3.7012
279.826	3.70355
279.007	3.74153
278.636	3.74657
278.581	3.76074
277.762	3.80621
277.54	3.81837
277.435	3.82005
276.415	3.87339
275.308	3.92992
275.188	3.93698
274.912	3.94911
272.994	4.04582
272.875	4.05391
272.777	4.03299
272.52	4.06435
272.451	4.07592
272.282	4.08232
271.997	4.08355
271.544	4.08892
271.413	4.09801
271.27	4.10487
270.158	4.13608
269.827	4.14449
268.819	4.18468
267.556	4.21253
267.43	4.21622
267.09	4.22126
265.203	4.25263
264.709	4.25834
264.269	4.25956
263.527	4.26829
263.207	4.27065
262.851	4.2724
261.17	4.28064
260.215	4.28059
258.104	4.27552
257.607	4.27269
257.302	4.26795
256.376	4.26452
255.722	4.2628
254.09	4.24348
253.696	4.24009
253.623	4.23806
253.419	4.2357
253.187	4.2323
252.94	4.22756
252.637	4.22586
252.334	4.21877
250.648	4.17688
250.491	4.16805
250.406	4.16636
250.207	4.1651
249.957	4.15993
249.671	4.15046
249.601	4.14338
249.067	4.1259
248.703	4.11499
247.356	4.06667
247.218	4.05789
247.011	4.05331
246.833	4.04776
245.64	4.01058
245.369	3.99302
245.368	4.00347
244.286	3.95214
244.098	3.94278
244.097	3.9474
242.495	3.88595
240.993	3.8295
240.858	3.82509
240.727	3.81632
240.066	3.78399
240.002	3.7795
239.92	3.77612
239.244	3.76562
239.145	3.76192
238.344	3.72519
238.305	3.72171
238.036	3.71124
237.99	3.70054
237.043	3.66935
237.042	3.67103
236.777	3.65685
235.731	3.6137
235.541	3.60563
234.433	3.56258
234.371	3.55718
234.193	3.5507
233.259	3.52339
232.963	3.52235
232.903	3.51357
232.731	3.50884
232.4	3.5077
231.753	3.50978
231.498	3.50268
231.454	3.49696
231.087	3.4922
229.811	3.49211
229.691	3.49412
229.488	3.49513
229.365	3.49917
229.32	3.50624
229.249	3.50792
229.007	3.50893
228.796	3.51193
228.63	3.51665
228.57	3.53047
228.451	3.53518
227.619	3.56828
227.411	3.57761
227.411	3.5793
226.6	3.62432
225.933	3.6626
225.774	3.67194
225.704	3.67362
225.067	3.71305
224.987	3.71775
224.986	3.72248
224.86	3.72618
224.308	3.76267
224.247	3.76671
224.205	3.77133
224.033	3.78177
223.498	3.80805
223.482	3.81446
223.44	3.82018
223.145	3.83601
223.073	3.84285
223.008	3.84689
222.5	3.8815
222.319	3.89363
222.203	3.89834
222.125	3.90349
222.083	3.90946
221.858	3.92328
221.668	3.93136
221.525	3.94177
220.754	3.99301
220.681	3.98716
220.598	4.00245
220.465	4.00885
220.355	4.01221
220.289	4.0122
