Uv/Vis Spectrum: Carbazole
Formula: C12H9N
CAS: 86-74-8
Melting point: 246.2
Boiling point: 354.7
Instrument: Beckman spectrophotometer
Origin: INSTITUTE OF ENERGY PROBLEMS OF CHEMICAL PHYSICS, RAS
Wavelength (nm)	Logarithm epsilon
226.453	4.52805
226.954	4.53398
227.206	4.53675
228.459	4.542
229.066	4.54447
230.056	4.54728
230.3	4.54823
230.918	4.55316
231.211	4.55548
231.41	4.55876
231.489	4.56024
231.817	4.56252
231.964	4.56365
232.382	4.56835
232.571	4.57056
232.863	4.57277
233.008	4.57388
233.207	4.57702
233.286	4.57844
233.788	4.58372
234.039	4.58619
234.835	4.59298
235.234	4.5962
235.77	4.59559
236.037	4.5954
236.272	4.5925
236.367	4.59118
236.862	4.58263
237.088	4.57844
237.791	4.56829
238.125	4.56323
238.375	4.55728
238.479	4.55427
238.962	4.54722
239.182	4.5438
239.661	4.53193
239.884	4.52603
240.133	4.52194
240.257	4.51988
240.978	4.49699
241.338	4.48522
241.827	4.48006
242.533	4.47344
243.277	4.47469
243.628	4.47515
243.84	4.47621
243.925	4.47659
244.133	4.47855
244.217	4.47934
245.031	4.48421
245.438	4.48663
246.717	4.48706
247.335	4.48727
248.84	4.48226
249.575	4.47988
250.219	4.4801
250.524	4.48021
251.046	4.48236
251.307	4.48343
252.109	4.49083
252.51	4.49448
253.241	4.4982
253.586	4.49991
254.031	4.50005
254.232	4.50012
254.66	4.49303
254.939	4.48728
255.215	4.47457
255.331	4.46821
256.327	4.43127
256.824	4.41176
257.066	4.40527
257.165	4.40216
257.927	4.37075
258.29	4.35439
258.544	4.34698
258.67	4.34343
259.154	4.32291
259.379	4.31247
259.633	4.30431
259.759	4.30039
261.339	4.22508
262.654	4.1509
262.777	4.14605
262.99	4.13615
263.369	4.11257
264.083	4.06193
264.21	4.05447
264.463	4.04018
264.592	4.03021
264.817	4.00954
265.761	3.93429
267.65	3.72784
267.933	3.70607
268.498	3.66138
268.89	3.64301
269.637	3.60642
269.868	3.59967
270.295	3.58805
271.483	3.59125
272.978	3.61499
273.212	3.62276
273.723	3.63799
274.96	3.66527
277.469	3.71525
277.617	3.71993
277.912	3.73118
279.05	3.75535
280.417	3.77944
280.714	3.78861
281.34	3.80817
281.837	3.81669
282.872	3.8346
283.214	3.84518
283.941	3.86567
284.548	3.87726
285.801	3.90074
286.098	3.9077
286.724	3.92264
286.808	3.92547
287.016	3.93241
287.213	3.93531
287.649	3.94236
287.946	3.94869
288.572	3.96231
288.656	3.96489
288.863	3.97123
289.16	3.97715
289.786	3.98992
290.042	3.99726
290.552	4.01157
290.749	4.01398
291.185	4.01988
292.179	4.04601
294.209	4.09489
294.288	4.09917
294.487	4.1085
294.68	4.11254
295.108	4.12122
295.412	4.12146
296.019	4.12194
296.136	4.1203
296.373	4.11617
296.565	4.11553
296.986	4.11361
297.038	4.10745
297.176	4.09419
297.296	4.09105
297.537	4.08397
297.745	4.07504
298.195	4.05664
298.255	4.05054
298.416	4.03812
299.913	3.98034
300.225	3.97542
300.346	3.96923
300.554	3.95752
300.674	3.95325
300.914	3.94459
301.362	3.92229
302.255	3.87542
302.378	3.86622
302.59	3.84716
302.712	3.84064
302.952	3.82894
303.075	3.81874
303.286	3.79895
303.527	3.78333
303.975	3.75181
304.098	3.73953
304.311	3.71383
304.43	3.70493
304.634	3.68878
305.046	3.64248
305.835	3.53167
306.072	3.51147
306.512	3.46789
306.521	3.44725
306.538	3.40624
307.212	3.32495
308.524	3.10306
309.839	3.12855
312.426	3.16921
312.866	3.19169
313.705	3.228
315.897	3.27413
320.283	3.34993
321.297	3.35465
323.282	3.36374
323.769	3.35289
324.7	3.33016
324.97	3.31752
325.509	3.29557
325.692	3.28139
326.015	3.25624
326.35	3.24139
326.978	3.20981
329.26	3.15846
330.937	3.18564
331.678	3.24233
333.696	3.3721
334.492	3.37562
336.05	3.38244
336.33	3.36926
337.372	3.29298
337.489	3.27835
337.688	3.25229
338.027	3.21993
338.663	3.15286
338.884	3.13333
