Uv/Vis Spectrum: Benzaldehyde, 3,4,5-trimethoxy-
Formula: C10H12O4
CAS: 86-81-7
Melting point: 73-75
Instrument: Unicam SP 800
Origin: INSTITUTE OF ENERGY PROBLEMS OF CHEMICAL PHYSICS, RAS
Wavelength (nm)	Logarithm epsilon
202.03	4.101
202.88	4.128
203.73	4.155
204.57	4.182
205.59	4.203
206.61	4.227
207.62	4.25
208.64	4.274
209.66	4.298
210.84	4.318
212.03	4.335
213.38	4.352
214.74	4.369
216.09	4.383
217.45	4.393
218.97	4.4
220.5	4.4
222.02	4.4
223.38	4.389
224.73	4.376
225.92	4.355
226.76	4.332
227.61	4.305
228.46	4.277
229.14	4.25
229.81	4.223
230.32	4.193
230.83	4.165
231.51	4.138
232.02	4.111
232.52	4.081
232.86	4.05
233.37	4.02
233.71	3.989
234.05	3.959
234.39	3.928
234.73	3.897
235.06	3.867
235.4	3.836
235.74	3.806
236.08	3.775
236.42	3.745
236.76	3.714
237.1	3.684
237.27	3.653
237.77	3.623
238.11	3.592
238.45	3.562
238.79	3.531
239.13	3.501
239.64	3.47
239.81	3.44
240.15	3.409
240.49	3.378
240.82	3.348
241.16	3.317
241.5	3.287
241.67	3.256
242.01	3.226
242.35	3.195
242.86	3.168
243.53	3.107
243.87	3.077
244.21	3.046
244.72	3.019
245.06	2.988
245.4	2.958
245.91	2.931
246.75	2.907
248.28	2.904
249.29	2.924
250.14	2.951
251.67	3.002
252.51	3.029
253.19	3.056
253.7	3.087
254.21	3.117
254.88	3.144
255.39	3.175
255.9	3.205
256.58	3.233
257.26	3.26
257.76	3.29
258.44	3.317
259.12	3.345
259.63	3.372
260.3	3.399
260.81	3.426
261.49	3.453
262.34	3.48
262.85	3.507
263.69	3.531
264.37	3.558
265.22	3.585
266.06	3.613
266.74	3.64
267.76	3.663
268.6	3.691
269.45	3.714
270.3	3.738
271.32	3.762
272.33	3.786
273.35	3.809
274.19	3.836
275.38	3.857
276.57	3.877
277.58	3.897
278.6	3.918
279.78	3.935
280.97	3.952
282.33	3.969
283.68	3.982
285.21	3.992
286.56	4.003
288.09	4.006
289.61	4.006
291.13	4.006
292.66	4.003
294.18	3.999
295.71	3.992
297.06	3.979
298.59	3.972
299.94	3.959
301.3	3.945
302.65	3.928
304.01	3.914
305.36	3.897
306.72	3.881
308.07	3.864
309.43	3.847
310.78	3.836
311.97	3.819
313.16	3.802
314.34	3.782
315.53	3.765
316.54	3.745
317.56	3.724
318.58	3.704
319.76	3.684
320.78	3.66
321.79	3.636
322.81	3.613
323.66	3.589
324.5	3.565
325.35	3.538
326.2	3.514
327.05	3.487
327.89	3.463
328.74	3.44
329.42	3.412
330.26	3.385
330.94	3.358
331.62	3.331
332.47	3.304
332.97	3.277
333.82	3.25
334.5	3.222
335.01	3.195
335.68	3.168
336.36	3.141
337.04	3.114
337.72	3.087
338.23	3.06
338.9	3.032
339.41	3.005
339.92	2.978
340.43	2.951
340.94	2.924
341.44	2.897
341.95	2.87
342.46	2.839
342.8	2.809
343.48	2.781
343.99	2.754
344.32	2.724
344.83	2.697
345.34	2.666
345.68	2.636
346.19	2.605
346.53	2.574
347.03	2.547
347.37	2.517
347.71	2.486
348.22	2.459
348.73	2.429
349.07	2.398
349.24	2.368
349.58	2.337
350.08	2.31
350.25	2.279
350.59	2.249
350.93	2.218
351.27	2.188
351.61	2.157
352.12	2.13
352.62	2.1
352.96	2.069
353.64	2.042
354.15	2.011
354.49	1.981
355	1.954
355.5	1.926
356.01	1.899
356.52	1.872
357.03	1.842
357.54	1.815
358.21	1.787
358.55	1.757
359.06	1.73
359.57	1.703
359.91	1.672
360.42	1.645
360.76	1.614
361.09	1.584
361.6	1.557
361.94	1.526
362.28	1.496
362.62	1.465
362.96	1.435
363.3	1.404
363.64	1.374
363.97	1.343
364.14	1.312
364.48	1.282
364.82	1.251
364.99	1.221
365.33	1.19
365.5	1.16
365.84	1.129
366.18	1.099
366.35	1.068
366.68	1.038
366.85	1.007
367.02	0.977
367.19	0.946
