Uv/Vis Spectrum: Quinoline, 4,7-dichloro-
Formula: C9H5Cl2N
CAS: 86-98-6
Melting point: 86
Instrument: Hilger Uvispek
Origin: INSTITUTE OF ENERGY PROBLEMS OF CHEMICAL PHYSICS, RAS
Wavelength (nm)	Logarithm epsilon
209.48	4.294
209.66	4.3
209.8	4.303
210.01	4.311
210.25	4.319
210.53	4.33
210.81	4.341
211.47	4.358
212.12	4.369
212.8	4.375
213.47	4.379
214.13	4.382
214.8	4.382
215.44	4.384
216.13	4.385
216.82	4.387
217.46	4.392
218.13	4.402
218.79	4.413
219.46	4.426
220.12	4.44
220.79	4.457
221.42	4.475
222.12	4.501
222.78	4.528
223.45	4.559
224.18	4.587
224.79	4.609
225.46	4.631
226.11	4.654
226.76	4.68
227.44	4.705
228.1	4.725
228.77	4.742
229.43	4.756
230.1	4.769
230.73	4.775
231.43	4.773
232.09	4.756
232.76	4.728
233.42	4.694
234.09	4.657
234.75	4.61
235.42	4.548
236.08	4.47
236.75	4.382
237.41	4.287
238.08	4.168
238.74	4.056
239.41	3.944
240.07	3.869
240.74	3.771
241.34	3.712
242.07	3.645
242.68	3.584
243.4	3.513
244.08	3.447
244.73	3.391
245.4	3.326
246.06	3.292
246.73	3.272
247.39	3.258
248.06	3.255
248.72	3.255
249.39	3.258
250.05	3.265
250.72	3.279
251.38	3.292
252.05	3.309
252.7	3.321
253.35	3.331
254.02	3.341
254.71	3.352
255.36	3.361
256.04	3.367
256.7	3.374
257.37	3.384
258.03	3.391
258.7	3.401
259.36	3.404
260.03	3.411
260.69	3.418
261.36	3.425
262.02	3.435
262.7	3.448
263.33	3.46
264.02	3.472
264.68	3.486
265.34	3.495
266.02	3.506
266.68	3.516
267.35	3.523
268.01	3.533
268.68	3.537
269.34	3.543
270.01	3.554
270.67	3.557
271.32	3.563
272	3.567
272.67	3.571
273.33	3.571
274	3.571
274.66	3.574
275.33	3.577
275.99	3.584
276.66	3.588
277.32	3.591
277.99	3.598
278.65	3.605
279.32	3.608
279.98	3.611
280.65	3.618
281.31	3.625
281.98	3.628
282.64	3.628
283.31	3.628
283.97	3.628
284.64	3.628
285.3	3.628
285.97	3.628
286.64	3.627
287.3	3.625
287.98	3.622
288.65	3.616
289.3	3.608
289.96	3.601
290.63	3.594
291.26	3.588
291.95	3.583
292.62	3.577
293.29	3.571
293.98	3.563
294.62	3.557
295.28	3.547
295.95	3.537
296.61	3.526
297.28	3.513
297.92	3.501
298.61	3.489
299.27	3.476
299.94	3.461
300.6	3.448
301.27	3.438
301.93	3.425
302.6	3.411
303.26	3.394
303.88	3.379
304.57	3.368
305.26	3.363
305.92	3.374
306.31	3.383
306.59	3.394
306.78	3.412
306.96	3.432
307.09	3.448
307.25	3.462
307.55	3.472
307.92	3.479
308.57	3.482
309.25	3.476
309.91	3.461
310.58	3.442
311.24	3.425
311.87	3.405
312.54	3.384
313.24	3.363
313.91	3.347
314.57	3.33
315.24	3.316
315.9	3.302
316.57	3.289
317.15	3.277
317.9	3.265
318.56	3.258
318.89	3.257
319.23	3.258
319.64	3.265
319.95	3.277
320.09	3.291
320.27	3.314
320.43	3.339
320.56	3.36
320.72	3.393
320.94	3.439
321.1	3.468
321.27	3.491
321.42	3.507
321.57	3.522
321.7	3.532
321.89	3.543
322.12	3.555
322.34	3.563
322.55	3.567
322.75	3.567
322.99	3.562
323.22	3.55
323.38	3.535
323.53	3.518
323.66	3.502
323.79	3.482
323.94	3.463
324.14	3.436
324.41	3.399
324.69	3.364
325.14	3.302
325.46	3.255
325.88	3.197
326.19	3.144
326.54	3.088
326.86	3.034
327.21	2.976
327.53	2.926
328	2.852
328.47	2.788
328.87	2.72
329.18	2.662
329.52	2.6
329.87	2.535
330.17	2.482
330.53	2.416
330.78	2.355
331.2	2.253
331.55	2.191
331.86	2.131
332.53	2.046
333.19	1.975
