Uv/Vis Spectrum: 3-(methylamino)-2-butenoic acid, ethyl ester
Formula: C7H13NO2
CAS: 870-85-9
Boiling point: 97/ 9 mm
Instrument: SF-4A
Origin: INSTITUTE OF ENERGY PROBLEMS OF CHEMICAL PHYSICS, RAS
Wavelength (nm)	Logarithm epsilon
242.5	3.392
243.5	3.399
244.5	3.406
245.5	3.412
246.5	3.419
247.5	3.427
248.5	3.436
249.5	3.448
250.5	3.462
251.5	3.479
252.5	3.498
253.5	3.519
254.5	3.543
255.5	3.568
256.5	3.595
257.5	3.624
258.5	3.653
259.5	3.683
260.5	3.714
261.5	3.744
262.5	3.775
263.5	3.804
264.5	3.833
265.5	3.861
266.5	3.888
267.5	3.914
268.5	3.938
269.5	3.961
270.5	3.983
271.5	4.003
272.5	4.023
273.508	4.039
274.508	4.054
275.508	4.072
276.508	4.091
277.508	4.111
278.508	4.131
279.508	4.15
280.508	4.169
281.508	4.186
282.508	4.201
283.508	4.214
284.508	4.225
285.508	4.234
286.508	4.24
287.508	4.244
288.508	4.246
289.508	4.245
290.508	4.243
291.508	4.237
292.508	4.23
293.508	4.22
294.508	4.208
295.508	4.193
296.508	4.175
297.508	4.154
298.508	4.129
299.508	4.1
300.508	4.065
301.508	4.025
302.508	3.977
303.6	3.913
304.6	3.851
305.6	3.768
306.6	3.671
307.6	3.564
308.6	3.453
309.6	3.34
310.6	3.228
311.6	3.118
312.6	3.011
313.6	2.909
314.6	2.811
315.6	2.718
316.6	2.63
317.6	2.547
318.6	2.47
319.6	2.399
320.6	2.335
321.6	2.281
322.6	2.24
323.6	2.214
