Uv/Vis Spectrum: Benzamide, 2-hydroxy-N-phenyl-
Formula: C13H11NO2
CAS: 87-17-2
Instrument: Beckman DK-2
Origin: INSTITUTE OF ENERGY PROBLEMS OF CHEMICAL PHYSICS, RAS
Wavelength (nm)	Logarithm epsilon
201.08	4.535
201.08	4.533
201.94	4.552
202.81	4.569
203.46	4.587
204.11	4.604
205.19	4.621
206.27	4.638
207.56	4.653
209.51	4.655
210.81	4.64
211.45	4.623
212.1	4.606
212.53	4.587
212.97	4.567
213.18	4.548
213.61	4.529
214.05	4.51
214.26	4.49
214.7	4.471
215.13	4.452
215.56	4.433
215.99	4.414
216.21	4.394
216.64	4.375
217.07	4.356
217.29	4.337
217.72	4.317
218.15	4.298
218.37	4.279
218.59	4.26
219.02	4.241
219.45	4.221
220.1	4.202
220.53	4.183
221.39	4.166
222.04	4.149
222.69	4.132
223.77	4.115
224.64	4.097
225.5	4.08
226.37	4.063
226.8	4.044
227.45	4.027
228.09	4.01
228.53	3.991
229.17	3.974
229.39	3.954
229.82	3.935
230.47	3.918
231.12	3.901
231.98	3.884
233.5	3.873
235.01	3.862
236.52	3.852
237.82	3.839
239.76	3.839
241.71	3.835
243.22	3.822
245.17	3.82
246.25	3.835
247.33	3.852
247.98	3.869
249.06	3.886
250.14	3.903
251	3.92
252.08	3.935
253.16	3.952
254.24	3.969
255.54	3.984
256.84	3.999
257.92	4.014
259.43	4.027
260.94	4.04
262.46	4.05
264.18	4.057
265.91	4.063
267.86	4.063
269.8	4.061
271.75	4.055
273.69	4.053
275.42	4.044
276.93	4.033
278.23	4.021
279.53	4.008
280.82	3.993
281.9	3.978
282.99	3.963
284.28	3.948
285.36	3.931
286.88	3.92
288.6	3.909
290.33	3.916
292.28	3.918
294.01	3.912
295.74	3.903
297.25	3.892
299.19	3.897
300.71	3.909
302	3.924
303.08	3.939
304.38	3.954
305.68	3.969
307.19	3.982
308.49	3.995
310	4.008
311.73	4.018
313.67	4.025
315.4	4.031
317.35	4.027
319.08	4.016
321.02	3.999
321.24	3.997
321.45	3.997
321.88	3.991
322.32	3.988
322.75	3.982
323.18	3.978
323.61	3.971
324.05	3.967
324.48	3.961
324.91	3.954
325.34	3.948
325.77	3.939
326.21	3.933
326.64	3.924
327.07	3.916
327.5	3.907
327.94	3.899
328.37	3.888
328.8	3.877
329.23	3.867
329.66	3.856
330.1	3.845
330.53	3.835
330.96	3.824
331.39	3.809
331.83	3.794
332.26	3.781
332.69	3.768
333.12	3.751
333.55	3.736
333.99	3.719
334.42	3.704
334.85	3.683
335.28	3.664
335.72	3.647
336.15	3.613
336.58	3.591
337.01	3.566
337.44	3.544
337.88	3.521
338.31	3.491
338.74	3.467
339.17	3.437
339.61	3.41
340.04	3.373
340.47	3.341
340.9	3.307
341.33	3.275
341.77	3.241
342.2	3.209
342.63	3.16
343.06	3.126
343.5	3.1
343.93	3.064
344.36	3.029
344.79	2.993
345.22	2.957
345.66	2.925
346.09	2.886
346.52	2.85
346.95	2.816
347.39	2.758
347.82	2.722
348.25	2.679
348.68	2.634
349.11	2.583
349.55	2.54
349.98	2.498
