Uv/Vis Spectrum: 2-Pyrrolidinone, 1-methyl-
Formula: C5H9NO
CAS: 872-50-4
Melting point: -24- -25
Boiling point: 90/ 15 mm
Instrument: Unicam SP 500
Origin: INSTITUTE OF ENERGY PROBLEMS OF CHEMICAL PHYSICS, RAS
Wavelength (nm)	Logarithm epsilon
190.63	3.952
191.33	3.954
192.04	3.955
192.75	3.957
193.47	3.955
194.19	3.954
194.92	3.952
195.65	3.947
196.31	3.942
196.97	3.936
197.55	3.928
198.22	3.92
198.81	3.912
199.4	3.904
200	3.894
201.38	3.864
201.46	3.862
201.55	3.861
201.64	3.859
201.72	3.858
201.81	3.856
201.9	3.854
201.99	3.853
202.07	3.851
202.16	3.85
202.25	3.848
202.33	3.846
202.42	3.845
202.51	3.843
202.6	3.842
202.69	3.84
202.77	3.838
202.86	3.837
202.95	3.835
203.04	3.834
203.12	3.832
203.21	3.83
203.3	3.829
203.57	3.824
204.01	3.814
204.46	3.8
204.9	3.79
205.35	3.776
205.8	3.765
206.26	3.75
206.71	3.738
207.17	3.723
207.63	3.707
208.09	3.693
208.56	3.677
209.02	3.661
209.49	3.643
209.96	3.627
210.43	3.608
210.91	3.587
211.38	3.566
211.86	3.544
212.34	3.526
212.82	3.504
213.31	3.48
213.8	3.459
214.29	3.437
214.78	3.413
215.27	3.389
215.77	3.363
216.27	3.336
216.77	3.31
217.27	3.283
217.78	3.256
218.28	3.226
218.79	3.195
219.31	3.163
219.82	3.131
220.34	3.096
220.86	3.062
221.38	3.029
221.91	2.992
222.43	2.947
222.96	2.912
223.5	2.877
224.03	2.837
224.57	2.79
225.11	2.742
225.65	2.691
226.2	2.637
226.74	2.582
227.29	2.526
227.85	2.469
228.4	2.411
228.96	2.354
229.52	2.296
230.09	2.238
230.66	2.184
231.23	2.13
231.8	2.069
232.37	2.006
232.95	1.954
233.53	1.893
234.12	1.838
234.7	1.784
235.29	1.73
235.89	1.677
236.48	1.618
237.08	1.562
237.68	1.507
238.29	1.445
238.9	1.386
239.51	1.328
240.12	1.267
240.74	1.198
241.36	1.142
241.99	1.093
