Uv/Vis Spectrum: Benzoic acid, 2-amino-, ethyl ester
Formula: C9H11NO2
CAS: 87-25-2
Boiling point: 156-158
Instrument: unknown
Origin: INSTITUTE OF ENERGY PROBLEMS OF CHEMICAL PHYSICS, RAS
Wavelength (nm)	Logarithm epsilon
203.54	4.068
203.71	4.071
203.88	4.075
204.05	4.075
204.22	4.078
204.38	4.078
204.55	4.082
204.72	4.085
204.89	4.085
205.06	4.088
205.23	4.092
206.07	4.095
206.91	4.109
207.76	4.129
208.6	4.153
209.44	4.17
210.29	4.187
211.13	4.214
211.97	4.238
212.82	4.269
213.66	4.299
214.5	4.316
215.35	4.333
216.19	4.35
217.03	4.367
217.88	4.377
218.72	4.381
219.56	4.388
220.4	4.388
221.25	4.384
222.09	4.381
222.93	4.371
223.78	4.364
224.62	4.343
225.46	4.316
226.31	4.282
227.15	4.238
227.99	4.187
228.84	4.119
229.68	4.037
230.52	3.962
231.37	3.901
232.21	3.85
233.05	3.803
233.9	3.765
234.74	3.735
235.58	3.718
236.42	3.714
237.27	3.704
238.11	3.711
238.95	3.714
239.8	3.721
240.64	3.738
241.48	3.758
242.33	3.775
243.17	3.792
244.01	3.803
244.86	3.816
245.7	3.833
246.54	3.847
247.39	3.85
248.23	3.86
249.07	3.86
249.92	3.857
250.76	3.847
251.6	3.837
252.45	3.826
253.29	3.813
254.13	3.796
254.97	3.775
255.82	3.748
256.66	3.724
257.5	3.684
258.35	3.629
259.16	3.562
260.03	3.456
260.88	3.35
261.72	3.234
262.05	3.165
262.45	3.093
262.85	3.026
263.24	2.941
263.64	2.851
264.25	2.734
264.69	2.645
265.09	2.568
265.76	2.46
266.28	2.363
267.3	2.256
268.47	2.143
269.31	2.068
270.15	2
270.99	1.935
271.84	1.918
272.68	1.918
273.52	1.925
274.37	1.938
275.2	1.958
276.05	1.984
276.97	2.015
277.94	2.056
278.52	2.077
279.43	2.118
280.23	2.151
281.11	2.183
281.96	2.231
282.8	2.265
283.64	2.302
284.49	2.347
285.33	2.384
286.17	2.418
287.02	2.455
287.86	2.493
288.7	2.53
289.54	2.568
290.39	2.605
291.23	2.643
292.07	2.677
292.92	2.711
293.76	2.738
294.6	2.772
295.45	2.802
296.29	2.833
297.13	2.86
297.98	2.891
298.82	2.925
299.66	2.956
300.51	2.979
301.35	3.013
302.19	3.044
303.04	3.068
303.88	3.098
304.72	3.126
305.56	3.149
306.41	3.18
307.25	3.197
308.09	3.221
308.94	3.245
309.78	3.265
310.62	3.286
311.47	3.306
312.31	3.33
313.15	3.35
314	3.367
314.84	3.388
315.68	3.405
316.53	3.425
317.37	3.442
318.21	3.462
319.06	3.479
319.9	3.496
320.74	3.513
321.59	3.524
322.43	3.541
323.27	3.554
324.11	3.568
324.96	3.585
325.8	3.592
326.64	3.602
327.49	3.612
328.33	3.619
329.17	3.629
330	3.639
330.86	3.646
331.59	3.654
332.55	3.66
333.39	3.667
334.25	3.669
335.08	3.673
335.92	3.68
336.76	3.68
337.61	3.684
338.45	3.684
339.29	3.684
340.13	3.684
340.98	3.684
341.82	3.68
342.66	3.68
343.51	3.677
344.35	3.67
345.19	3.667
346.04	3.663
346.76	3.659
347.72	3.649
348.57	3.643
349.51	3.635
350.35	3.622
351.1	3.609
351.94	3.595
352.78	3.581
353.63	3.568
354.47	3.558
355.31	3.541
356.16	3.524
357	3.507
357.84	3.483
358.68	3.462
359.53	3.439
360.37	3.411
361.21	3.381
362.06	3.347
362.9	3.313
363.74	3.279
364.59	3.241
365.43	3.204
366.27	3.156
367.12	3.109
367.96	3.071
368.8	3.017
369.65	2.976
370.49	2.928
371.33	2.877
372.18	2.826
373.02	2.755
373.86	2.704
374.7	2.649
375.55	2.585
376.39	2.524
377.23	2.455
378.08	2.374
378.92	2.299
379.76	2.228
380.61	2.149
381.45	2.074
382.29	2.003
383.14	1.915
383.98	1.84
384.82	1.758
385.67	1.673
386.55	1.609
387.35	1.554
388.2	1.483
389.04	1.401
389.88	1.319
390.73	1.238
391.57	1.153
392.41	1.064
393.25	0.986
394.1	0.918
394.94	0.85
395.78	0.768
396.63	0.714
