Uv/Vis Spectrum: 1,3-Dimethyl-4-ethylbenzene
Formula: C10H14
CAS: 874-41-9
Boiling point: 188.4
Instrument: unknown
Origin: INSTITUTE OF ENERGY PROBLEMS OF CHEMICAL PHYSICS, RAS
Wavelength (nm)	Logarithm epsilon
231.69	2.155
231.76	2.147
231.88	2.133
231.98	2.12
232.09	2.106
232.2	2.093
232.45	2.062
232.69	2.032
232.95	1.997
233.21	1.962
233.46	1.924
233.72	1.888
233.97	1.858
234.22	1.826
234.48	1.798
234.73	1.783
235.1	1.767
235.57	1.751
235.95	1.741
236.33	1.731
236.71	1.724
237.07	1.719
237.47	1.717
237.85	1.717
238.23	1.719
238.59	1.721
238.95	1.725
239.37	1.731
239.79	1.74
240.09	1.748
240.47	1.758
240.81	1.767
241.15	1.777
241.43	1.786
241.8	1.8
242.12	1.812
242.46	1.823
242.85	1.838
243.12	1.846
243.43	1.858
243.74	1.87
244.06	1.883
244.36	1.895
244.65	1.908
244.95	1.92
245.24	1.931
245.54	1.943
245.84	1.956
246.13	1.966
246.43	1.978
246.68	1.989
246.93	2.002
247.19	2.013
247.44	2.024
247.74	2.032
247.99	2.044
248.24	2.056
248.5	2.067
248.75	2.078
249	2.088
249.26	2.097
249.51	2.107
249.76	2.117
250.02	2.128
250.27	2.137
250.51	2.146
250.73	2.155
250.94	2.164
251.18	2.174
251.42	2.183
251.67	2.191
251.88	2.2
252.13	2.208
252.38	2.216
252.61	2.224
252.84	2.233
253.06	2.241
253.27	2.25
253.48	2.257
253.68	2.265
253.85	2.272
254.07	2.28
254.28	2.287
254.49	2.294
254.71	2.301
254.91	2.308
255.13	2.315
255.34	2.322
255.55	2.329
255.76	2.335
255.97	2.342
256.18	2.348
256.35	2.355
256.56	2.361
256.73	2.368
256.94	2.373
257.11	2.38
257.32	2.386
257.49	2.392
257.7	2.398
257.87	2.403
258.08	2.409
258.21	2.415
258.38	2.421
258.55	2.426
258.71	2.432
258.93	2.437
259.09	2.442
259.26	2.448
259.43	2.453
259.64	2.458
259.81	2.463
259.98	2.468
260.15	2.473
260.36	2.477
260.61	2.482
260.87	2.486
261.12	2.49
261.37	2.494
261.71	2.496
262.26	2.499
262.3	2.5
262.35	2.5
262.39	2.5
262.43	2.5
262.47	2.5
262.51	2.501
262.56	2.501
262.6	2.501
262.64	2.501
262.68	2.502
262.73	2.502
262.77	2.503
262.81	2.503
262.85	2.503
262.89	2.503
262.94	2.503
262.98	2.504
263.02	2.504
263.06	2.504
263.11	2.504
263.27	2.506
263.44	2.507
263.61	2.509
263.78	2.512
263.95	2.515
264.12	2.52
264.29	2.523
264.46	2.531
264.63	2.538
264.79	2.549
264.96	2.564
265.13	2.583
265.3	2.595
265.47	2.606
265.64	2.617
265.81	2.626
265.98	2.632
266.15	2.637
266.32	2.641
266.48	2.642
266.65	2.642
266.82	2.64
266.99	2.636
267.16	2.631
267.33	2.626
267.5	2.621
267.67	2.616
267.84	2.613
268	2.608
268.17	2.604
268.34	2.6
268.51	2.595
268.68	2.593
268.85	2.589
269.02	2.586
269.19	2.582
269.36	2.58
269.52	2.577
269.69	2.575
269.86	2.572
270.03	2.571
270.2	2.567
270.37	2.563
270.54	2.558
270.71	2.552
270.88	2.545
271.04	2.537
271.21	2.529
271.38	2.524
271.55	2.516
271.72	2.508
271.89	2.499
272.06	2.49
272.23	2.481
272.4	2.481
272.56	2.477
272.73	2.478
272.9	2.478
273.07	2.484
273.24	2.493
273.41	2.508
273.58	2.54
273.75	2.565
273.92	2.59
274.08	2.605
274.25	2.62
274.42	2.629
274.59	2.634
274.76	2.637
274.93	2.638
275.1	2.637
275.27	2.631
275.44	2.622
275.61	2.613
275.77	2.599
275.94	2.583
276.11	2.569
276.28	2.548
276.45	2.528
276.62	2.506
276.76	2.489
276.91	2.471
277.1	2.448
277.29	2.42
277.46	2.379
277.63	2.35
277.8	2.308
277.97	2.277
278.14	2.235
278.31	2.193
278.48	2.163
278.65	2.12
278.81	2.079
278.98	2.046
279.15	2.011
279.32	1.976
279.49	1.941
279.66	1.911
279.83	1.89
280	1.863
280.17	1.826
280.33	1.801
