Uv/Vis Spectrum: 6-Chloropurine
Formula: C5H3ClN4
CAS: 87-42-3
Melting point: 175-7 dec
Instrument: Beckman DU
Origin: INSTITUTE OF ENERGY PROBLEMS OF CHEMICAL PHYSICS, RAS
Wavelength (nm)	Logarithm epsilon
227.972	3.31309
228.116	3.31697
228.267	3.32066
228.421	3.32424
230.027	3.36298
230.176	3.36898
230.319	3.37154
230.577	3.37291
231.377	3.3971
231.4	3.39882
231.431	3.40041
231.466	3.40192
232.812	3.42871
232.848	3.43067
232.883	3.43263
232.919	3.43458
235.063	3.47788
235.065	3.47965
235.067	3.48141
235.069	3.48316
235.602	3.49071
235.847	3.49747
236.091	3.50406
236.335	3.51046
237.322	3.52817
237.345	3.52945
237.376	3.53062
237.411	3.53174
237.946	3.54069
238.191	3.54672
238.435	3.55261
238.68	3.55834
241.559	3.60816
241.734	3.61167
241.912	3.61516
242.099	3.61861
244.07	3.64489
244.312	3.64811
244.554	3.65131
244.796	3.65448
247.485	3.68212
247.595	3.684
247.712	3.68587
247.833	3.68772
248.283	3.69324
248.427	3.69506
248.578	3.69687
248.733	3.69868
249.636	3.711
250.045	3.71929
250.455	3.72742
250.869	3.7354
251.288	3.74324
252.196	3.75717
252.515	3.76434
252.834	3.77138
253.153	3.77829
253.472	3.78506
254.02	3.79582
254.321	3.80183
254.627	3.80774
254.94	3.81358
255.138	3.81901
255.261	3.8208
255.383	3.82254
255.506	3.82424
255.957	3.83643
256.297	3.84382
256.641	3.85105
256.992	3.85813
257.351	3.86623
257.6	3.87104
257.85	3.87576
258.099	3.8804
258.274	3.88248
258.398	3.88485
258.523	3.88721
258.648	3.88955
259.114	3.8991
259.387	3.90422
259.668	3.90925
259.952	3.91419
260.496	3.92076
260.66	3.92515
260.945	3.92971
261.597	3.93826
262.331	3.94584
262.748	3.94924
263.166	3.95261
263.583	3.95595
264.661	3.95931
265.36	3.95832
265.817	3.95678
266.407	3.95355
266.921	3.94952
267.138	3.94657
267.362	3.94356
267.59	3.94051
267.935	3.9369
267.984	3.93601
268.037	3.9351
268.097	3.93415
268.637	3.93314
268.965	3.92757
269.222	3.92332
269.434	3.91969
269.626	3.91596
269.823	3.91137
270.051	3.90513
270.469	3.8966
270.683	3.89212
270.904	3.88758
271.129	3.88294
271.306	3.87923
271.352	3.87681
271.401	3.87438
271.457	3.87193
271.611	3.86545
271.899	3.85721
272.133	3.85136
272.356	3.84394
272.611	3.83657
272.73	3.83013
272.879	3.82484
273.073	3.81846
273.329	3.80863
273.744	3.79686
273.782	3.79186
273.865	3.78823
273.904	3.78405
274.247	3.77747
274.291	3.77352
274.338	3.76953
274.393	3.7655
274.723	3.75169
274.724	3.75263
274.726	3.75357
274.728	3.75451
274.887	3.74884
274.979	3.74165
275.084	3.73591
275.209	3.73015
275.357	3.7228
275.533	3.71219
275.856	3.70292
275.995	3.69446
276.135	3.68582
276.279	3.67698
276.427	3.66791
276.654	3.64972
276.818	3.6404
276.982	3.63087
277.146	3.62109
277.311	3.61103
277.469	3.60312
277.494	3.59438
277.594	3.58625
277.769	3.57502
278.021	3.55648
278.262	3.53059
278.265	3.53371
278.269	3.53675
278.272	3.53967
278.44	3.52356
278.533	3.51084
278.633	3.49768
278.737	3.484
279.223	3.44316
279.381	3.42487
279.546	3.40564
279.715	3.38545
280.036	3.36225
280.142	3.34869
280.315	3.32714
280.536	3.30225
280.784	3.2797
281.038	3.26637
281.356	3.23069
281.541	3.20651
281.716	3.18664
281.908	3.1663
282.142	3.1397
282.445	3.0993
282.866	3.04917
283.04	3.01061
283.313	2.96823
283.611	2.91987
283.86	2.86237
284.199	2.78461
284.365	2.76525
284.535	2.74468
284.713	2.72243
