Uv/Vis Spectrum: Benzene, (propylthio)-
Formula: C9H12S
CAS: 874-79-3
Boiling point: 219-220
Instrument: SF-4
Origin: INSTITUTE OF ENERGY PROBLEMS OF CHEMICAL PHYSICS, RAS
Wavelength (nm)	Logarithm epsilon
221.85	3.587
222.53	3.56
223.37	3.536
224.22	3.512
225.07	3.488
226.08	3.465
227.1	3.441
228.12	3.421
229.3	3.4
230.66	3.387
232.18	3.377
233.71	3.377
235.23	3.38
236.42	3.397
237.6	3.414
238.79	3.431
239.8	3.455
240.65	3.478
241.67	3.502
242.51	3.529
243.36	3.553
244.21	3.576
245.05	3.604
245.9	3.631
246.75	3.658
247.59	3.685
248.44	3.712
249.12	3.739
250.13	3.763
250.81	3.79
251.83	3.814
252.84	3.837
254.03	3.858
255.22	3.875
256.74	3.875
258.09	3.858
259.28	3.841
260.3	3.817
260.97	3.79
261.82	3.766
262.5	3.739
263.18	3.712
264.02	3.685
264.7	3.658
265.21	3.631
265.89	3.604
266.73	3.58
267.24	3.553
268.09	3.529
268.77	3.502
269.61	3.475
270.29	3.448
271.14	3.421
271.81	3.394
272.66	3.37
273.34	3.343
274.19	3.316
274.86	3.288
275.71	3.265
276.39	3.238
277.23	3.214
277.91	3.187
278.76	3.163
279.44	3.136
280.28	3.109
280.96	3.082
281.81	3.058
282.65	3.031
283.5	3.004
284.18	2.977
284.86	2.95
285.7	2.923
286.38	2.895
287.23	2.872
287.9	2.845
288.75	2.821
289.43	2.794
290.11	2.767
290.78	2.74
291.46	2.712
292.14	2.685
292.65	2.658
293.15	2.631
293.66	2.604
294.17	2.577
294.68	2.55
295.19	2.523
295.7	2.492
296.03	2.462
296.37	2.431
296.88	2.401
297.22	2.37
297.56	2.34
297.9	2.309
298.07	2.279
298.41	2.248
298.74	2.218
299.08	2.187
299.25	2.157
299.59	2.126
299.93	2.096
300.27	2.065
303.15	1.649
303.83	1.455
304.5	1.306
305.18	1.144
305.86	1.012
306.54	0.829
307.21	0.68
307.89	0.544
308.57	0.419
