Uv/Vis Spectrum: Benzonitrile, 4-methoxy-
Formula: C8H7NO
CAS: 874-90-8
Melting point: 61.5
Boiling point: 256.5
Instrument: SF-4A
Origin: INSTITUTE OF ENERGY PROBLEMS OF CHEMICAL PHYSICS, RAS
Wavelength (nm)	Logarithm epsilon
205.323	3.162
206.323	3.194
207.323	3.227
208.323	3.261
209.323	3.294
210.323	3.328
211.323	3.362
212.323	3.397
213.323	3.431
214.323	3.466
215.323	3.501
216.323	3.536
217.323	3.571
218.323	3.606
219.323	3.641
220.323	3.676
221.323	3.71
222.323	3.745
223.323	3.779
224.323	3.814
225.323	3.847
226.323	3.881
227.323	3.914
228.323	3.946
229.323	3.978
230.42	4.012
231.42	4.048
232.42	4.079
233.42	4.107
234.42	4.131
235.42	4.153
236.42	4.171
237.42	4.188
238.42	4.203
239.42	4.216
240.42	4.228
241.42	4.238
242.42	4.247
243.42	4.255
244.42	4.262
245.42	4.268
246.42	4.273
247.42	4.277
248.42	4.28
249.42	4.281
250.42	4.282
251.42	4.281
252.42	4.28
253.42	4.277
254.42	4.273
255.42	4.267
256.42	4.26
257.42	4.252
258.42	4.242
259.42	4.231
260.42	4.219
261.42	4.205
262.42	4.19
263.42	4.173
264.42	4.155
265.42	4.135
266.42	4.114
267.42	4.092
268.42	4.068
269.42	4.043
270.42	4.016
271.42	3.989
272.42	3.96
273.42	3.929
274.42	3.897
275.42	3.864
276.42	3.83
277.42	3.793
278.42	3.755
279.42	3.715
280.42	3.672
