Uv/Vis Spectrum: Pyrogallol
Formula: C6H6O3
CAS: 87-66-1
Melting point: 133
Boiling point: 309
Instrument: n.i.g.
Origin: INSTITUTE OF ENERGY PROBLEMS OF CHEMICAL PHYSICS, RAS
Wavelength (nm)	Logarithm epsilon
251.389	2.0171
251.4	2.03518
251.434	2.05324
251.488	2.07129
251.561	2.08933
251.653	2.10736
251.763	2.12537
251.889	2.14337
252.031	2.16136
252.186	2.17934
252.355	2.19731
252.536	2.21526
252.728	2.2332
252.93	2.25113
253.141	2.26905
253.36	2.28695
253.585	2.30484
253.816	2.32272
254.051	2.34059
254.29	2.35844
254.531	2.37628
254.774	2.39411
255.016	2.41193
255.258	2.42973
255.498	2.44752
255.734	2.46529
255.967	2.48305
256.194	2.5008
256.415	2.51854
256.629	2.53626
256.834	2.55397
256.834	2.55397
257.07	2.55734
257.362	2.56505
257.707	2.5766
258.102	2.59151
258.544	2.6093
259.031	2.62949
259.56	2.65159
260.129	2.67512
260.734	2.6996
261.373	2.72454
262.043	2.74946
262.742	2.77388
263.466	2.79732
264.213	2.81928
264.213	2.81928
265.506	2.84135
266.819	2.86342
268.171	2.8855
268.171	2.8855
269.684	2.88644
271.217	2.88728
272.791	2.88793
272.791	2.88793
274.604	2.83911
275.922	2.80405
276.847	2.78035
277.481	2.76561
277.928	2.75746
278.29	2.7535
278.67	2.75134
278.67	2.75134
278.992	2.73274
279.323	2.71413
279.662	2.69549
280.007	2.67685
280.354	2.65817
280.705	2.63948
281.055	2.62076
281.404	2.60201
281.749	2.58324
282.089	2.56443
282.423	2.54558
282.748	2.5267
283.062	2.50777
283.364	2.48881
283.652	2.4698
283.924	2.45074
284.179	2.43164
284.414	2.41248
284.628	2.39327
284.819	2.374
284.986	2.35467
293.224	1.93081
