Uv/Vis Spectrum: Benzenamine, 2,6-dimethyl-
Formula: C8H11N
CAS: 87-62-7
Melting point: 216.9
Instrument: Spektromom 201
Origin: INSTITUTE OF ENERGY PROBLEMS OF CHEMICAL PHYSICS, RAS
Wavelength (nm)	Logarithm epsilon
203.02	4.484
203.19	4.487
203.36	4.491
203.52	4.494
203.69	4.494
203.86	4.498
204.03	4.501
204.19	4.504
204.36	4.504
204.53	4.508
204.7	4.511
205.03	4.511
206.04	4.511
207.05	4.494
208.05	4.46
209.06	4.402
210.07	4.344
211.07	4.279
212.08	4.193
213.09	4.101
214.09	3.981
215.1	3.889
216.11	3.824
217.11	3.776
217.91	3.757
218.92	3.746
220.08	3.744
221.14	3.746
222.17	3.75
223.15	3.756
224.12	3.759
225.2	3.767
226.17	3.776
227.22	3.787
228.22	3.8
229.19	3.811
230.2	3.824
231.21	3.838
232.21	3.852
233.22	3.855
234.23	3.862
235.23	3.865
236.24	3.862
237.25	3.855
238.25	3.848
239.26	3.834
240.27	3.811
241.27	3.787
242.28	3.752
243.29	3.708
244.29	3.653
245.3	3.592
246.31	3.523
247.32	3.448
248.32	3.373
249.33	3.305
250.34	3.226
251.34	3.175
252.35	3.124
253.36	3.076
254.36	3.031
255.37	2.987
256.38	2.949
257.38	2.905
258.39	2.871
259.4	2.847
260.4	2.836
261.41	2.833
262.42	2.836
263.42	2.847
264.43	2.86
265.44	2.877
266.49	2.899
267.45	2.922
268.46	2.953
269.46	2.987
270.47	3.021
271.48	3.055
272.48	3.089
273.49	3.12
274.5	3.151
275.5	3.171
276.51	3.202
277.52	3.223
278.52	3.247
279.53	3.267
280.54	3.284
281.41	3.298
282.55	3.305
283.56	3.312
284.56	3.312
285.57	3.308
286.58	3.301
287.58	3.288
288.59	3.267
289.6	3.253
290.6	3.233
291.65	3.205
292.62	3.178
293.62	3.134
294.63	3.096
295.64	3.048
296.64	2.987
297.65	2.929
298.66	2.84
299.66	2.751
300.67	2.659
301.68	2.563
302.68	2.44
303.69	2.337
304.7	2.228
305.42	2.169
306.71	2.061
307.72	1.941
308.72	1.825
309.73	1.664
309.9	1.65
