Uv/Vis Spectrum: Quinoline, 2,6-dimethyl-
Formula: C11H11N
CAS: 877-43-0
Melting point: 266.5
Boiling point: 60
Instrument: Hitachi 139
Origin: INSTITUTE OF ENERGY PROBLEMS OF CHEMICAL PHYSICS, RAS
Wavelength (nm)	Logarithm epsilon
231.35	4.214
231.62	4.221
231.98	4.236
232.31	4.249
232.56	4.259
232.85	4.269
233.14	4.285
233.45	4.301
233.75	4.315
234.05	4.328
234.37	4.341
234.65	4.354
234.98	4.367
235.26	4.381
235.53	4.394
235.87	4.407
236.16	4.417
236.45	4.429
236.76	4.439
237.09	4.449
237.36	4.457
237.7	4.468
237.96	4.474
238.23	4.483
238.56	4.49
238.87	4.498
239.16	4.506
239.45	4.514
239.76	4.523
240.09	4.532
240.37	4.541
240.65	4.548
240.97	4.555
241.28	4.561
241.57	4.567
241.87	4.572
242.17	4.578
242.47	4.582
242.77	4.582
243.07	4.581
243.37	4.578
243.67	4.576
243.97	4.576
244.27	4.577
244.57	4.582
244.87	4.583
245.12	4.574
245.34	4.55
245.62	4.52
246.08	4.472
246.38	4.436
246.68	4.397
246.95	4.364
247.28	4.328
247.49	4.308
247.67	4.286
247.92	4.259
248.33	4.21
248.48	4.193
248.76	4.158
249.08	4.119
249.38	4.072
249.69	4.024
249.99	3.907
250.29	3.733
250.59	3.607
250.87	3.498
251.25	3.362
251.62	3.265
252.25	3.155
252.69	3.086
253.19	3.018
253.89	2.93
254.06	2.899
254.31	2.874
254.5	2.857
254.75	2.828
255.43	2.746
256.06	2.678
257.06	2.573
257.68	2.539
258.06	2.53
258.37	2.528
258.75	2.525
259.56	2.525
260.37	2.542
261.18	2.562
261.71	2.577
262	2.584
262.37	2.598
262.68	2.615
262.99	2.63
263.43	2.644
265.62	2.706
266.24	2.726
267.12	2.745
267.43	2.757
267.68	2.766
267.93	2.774
268.37	2.786
268.68	2.797
269.24	2.808
270.37	2.848
271.12	2.871
271.55	2.885
272.23	2.899
272.49	2.908
272.8	2.916
273.14	2.93
273.55	2.947
273.93	2.956
276.74	3.037
277.05	3.047
277.34	3.06
277.62	3.072
277.95	3.082
278.24	3.089
278.55	3.102
281.55	3.194
281.8	3.2
282.11	3.211
282.36	3.22
282.68	3.225
283.05	3.24
283.43	3.251
283.74	3.262
285.24	3.325
285.43	3.336
285.74	3.347
286.17	3.362
286.61	3.376
286.96	3.389
287.27	3.4
288.49	3.438
289.24	3.458
289.74	3.472
290.17	3.484
290.57	3.492
291.17	3.506
292.55	3.535
292.98	3.546
293.28	3.553
293.58	3.561
293.88	3.568
294.18	3.574
294.73	3.586
295.36	3.608
296.28	3.626
296.55	3.631
296.86	3.637
297.19	3.644
297.49	3.65
297.79	3.655
298.73	3.682
299.23	3.691
299.59	3.704
299.89	3.709
300.48	3.716
301.23	3.733
302	3.747
302.3	3.752
302.6	3.752
302.9	3.761
303.2	3.77
303.5	3.774
303.8	3.778
305.3	3.811
305.6	3.811
305.91	3.815
306.21	3.823
306.51	3.831
308.01	3.864
308.31	3.864
308.61	3.867
308.91	3.871
309.21	3.881
309.51	3.884
311.32	3.904
311.62	3.904
311.92	3.91
312.22	3.914
312.52	3.917
312.82	3.917
313.12	3.92
315.23	3.932
315.53	3.932
315.83	3.935
316.13	3.935
316.43	3.935
316.73	3.935
317.03	3.938
317.33	3.938
317.63	3.938
319.74	3.932
320.04	3.932
320.34	3.932
320.64	3.929
320.94	3.929
321.24	3.923
321.54	3.92
323.04	3.891
323.34	3.884
323.73	3.867
324.55	3.842
324.85	3.831
325.16	3.816
325.66	3.793
326.1	3.773
326.35	3.752
326.66	3.736
327.29	3.708
327.66	3.691
328.04	3.674
328.66	3.643
329.36	3.614
329.66	3.595
329.96	3.588
330.66	3.56
331.76	3.516
332.06	3.508
332.35	3.501
332.72	3.492
333.03	3.481
333.26	3.475
334.35	3.438
335.37	3.4
335.67	3.389
335.97	3.387
336.27	3.379
337.78	3.333
338.98	3.296
339.22	3.285
339.6	3.273
339.89	3.263
340.18	3.255
342.11	3.174
342.44	3.152
342.88	3.122
343.19	3.102
