Uv/Vis Spectrum: Benzene, hexamethyl-
Formula: C12H18
CAS: 87-85-4
Melting point: 166.5
Boiling point: 263.4
Instrument: Zeiss PMQ II
Origin: INSTITUTE OF ENERGY PROBLEMS OF CHEMICAL PHYSICS, RAS
Wavelength (nm)	Logarithm epsilon
290.555	1.1393
290.183	1.17624
289.972	1.20581
289.972	1.20581
289.863	1.2076
289.75	1.20939
289.628	1.21119
289.628	1.21119
289.081	1.28357
288.606	1.34555
288.197	1.39818
287.847	1.4425
287.551	1.47955
287.302	1.51038
287.096	1.53602
286.926	1.55751
286.786	1.5759
286.672	1.59223
286.578	1.60753
286.497	1.62286
286.497	1.62286
286.055	1.65394
285.473	1.70678
284.809	1.75912
284.809	1.75912
284.464	1.79456
284.119	1.83
283.775	1.86544
283.431	1.90088
283.088	1.93631
282.746	1.97174
282.404	2.00717
282.063	2.04259
281.722	2.07801
281.381	2.11342
281.041	2.14882
280.7	2.18422
280.36	2.2196
280.36	2.2196
280.124	2.22303
279.974	2.22668
279.781	2.23368
279.781	2.23368
279.29	2.23508
278.967	2.23511
278.531	2.2338
278.531	2.2338
278.287	2.2282
278.038	2.22255
277.781	2.21679
277.781	2.21679
277.536	2.21655
277.282	2.21625
277.024	2.21584
277.024	2.21584
276.821	2.25446
276.361	2.31061
275.541	2.34674
275.541	2.34674
275.245	2.34601
274.946	2.34527
274.639	2.34454
274.639	2.34454
274.279	2.33443
273.835	2.3263
273.324	2.31816
273.322	2.31536
273.32	2.31255
273.319	2.30975
273.017	2.3215
273.017	2.3215
272.463	2.34491
271.716	2.36795
270.337	2.37581
270.337	2.37581
269.261	2.34297
268.793	2.33007
268.526	2.32604
268.526	2.32604
268.018	2.32685
267.505	2.32767
266.988	2.32849
266.988	2.32849
265.932	2.30495
264.937	2.2826
262.947	2.27462
262.947	2.27462
261.939	2.25428
261.284	2.22847
260.764	2.20145
260.764	2.20145
260.054	2.18608
259.561	2.17675
258.86	2.16546
258.86	2.16546
257.903	2.12507
256.812	2.08401
254.895	2.05121
254.895	2.05121
254.55	2.04207
254.198	2.03294
253.844	2.0238
253.844	2.0238
253.535	1.98803
252.956	1.95512
251.73	1.92285
251.73	1.92285
250.153	1.89802
249.196	1.86848
248.64	1.8256
248.64	1.8256
248.604	1.82706
248.561	1.8284
248.559	1.82426
248.514	1.82969
248.475	1.82281
248.452	1.83199
248.452	1.83199
248.383	1.8213
248.371	1.83124
248.287	1.83048
248.195	1.82973
248.195	1.82973
248.073	1.81807
247.83	1.80704
247.307	1.79594
247.307	1.79594
247.306	1.79459
247.305	1.79312
247.304	1.7916
247.304	1.7916
245.69	1.77534
244.398	1.78318
243.177	1.81123
243.177	1.81123
243.109	1.82231
242.989	1.83255
242.686	1.84111
242.686	1.84111
242.229	1.88102
241.904	1.9111
241.62	1.94069
241.29	1.97915
240.823	2.03583
240.823	2.03583
240.656	2.06743
240.491	2.09905
240.327	2.13068
240.165	2.16232
240.004	2.19397
239.843	2.22562
239.684	2.25729
239.525	2.28896
239.366	2.32063
239.207	2.35231
239.048	2.38399
238.89	2.41568
238.73	2.44736
238.57	2.47905
238.41	2.51074
238.248	2.54243
238.085	2.57412
237.921	2.6058
237.756	2.63748
237.588	2.66916
237.419	2.70084
237.248	2.7325
237.074	2.76416
236.899	2.79582
236.72	2.82747
236.539	2.8591
236.355	2.89073
236.168	2.92235
235.977	2.95396
235.784	2.98555
235.586	3.01713
235.385	3.0487
235.18	3.08026
234.971	3.11179
234.758	3.14331
234.54	3.17482
234.318	3.2063
234.091	3.23777
233.859	3.26922
233.622	3.30065
233.38	3.33205
233.133	3.36344
232.881	3.3948
232.622	3.42614
232.358	3.45745
232.089	3.48874
231.813	3.52
231.531	3.55124
231.243	3.58244
230.948	3.61362
230.948	3.61362
230.481	3.6515
230.01	3.68884
229.521	3.72574
229.004	3.76233
228.445	3.79872
227.834	3.83502
227.158	3.87134
227.158	3.87134
226.685	3.88848
226.214	3.90563
225.745	3.92277
225.745	3.92277
224.776	3.94813
224.245	3.96073
223.971	3.96764
223.971	3.96764
222.371	3.99143
220.712	4.01218
219.013	4.03083
217.296	4.04831
215.579	4.06552
215.579	4.06552
215.186	4.07318
214.514	4.08444
213.755	4.09793
213.755	4.09793
212.719	4.12587
211.838	4.15315
211.159	4.18426
211.159	4.18426
210.976	4.1904
210.552	4.21307
209.529	4.2717
209.529	4.2717
209.034	4.30748
208.553	4.34319
208.086	4.37881
207.631	4.41438
207.187	4.44989
206.753	4.48537
206.327	4.52082
205.907	4.55626
205.907	4.55626
205.419	4.59037
204.872	4.62768
204.209	4.66458
203.379	4.69742
202.329	4.72258
202.329	4.72258
201.385	4.72173
200.282	4.71547
199.627	4.6986
199.627	4.6986
198.662	4.68255
197.485	4.65074
196.732	4.62803
196.732	4.62803
195.855	4.59531
194.984	4.56253
194.116	4.52964
194.116	4.52964
193.482	4.50155
192.841	4.47272
192.2	4.44322
191.565	4.41317
190.943	4.38265
190.341	4.35175
189.766	4.32058
189.224	4.28922
188.72	4.25777
188.262	4.22632
187.856	4.19497
187.856	4.19497
187.506	4.17437
186.982	4.13953
186.629	4.11876
186.629	4.11876
186.18	4.08318
185.592	4.04752
185.082	4.01077
185.082	4.01077
185.02	4.00943
184.958	4.00798
184.895	4.00647
184.895	4.00647
184.533	3.97638
