Uv/Vis Spectrum: Naphthalene, 2-methyl-1-nitro-
Formula: C11H9NO2
CAS: 881-03-8
Melting point: 80.1
Instrument: Unicam SP 800
Origin: INSTITUTE OF ENERGY PROBLEMS OF CHEMICAL PHYSICS, RAS
Wavelength (nm)	Logarithm epsilon
207.44	4.479
207.78	4.482
208.11	4.489
208.45	4.496
209.13	4.506
210.14	4.54
211.16	4.571
212.17	4.619
213.18	4.657
214.2	4.704
215.21	4.752
216.23	4.797
217.24	4.834
218.26	4.869
219.27	4.899
220.28	4.93
221.3	4.954
222.31	4.981
223.33	4.985
224.34	4.892
225.35	4.704
226.37	4.503
227.38	4.346
228.4	4.185
229.41	3.99
230.43	3.84
231.44	3.734
232.45	3.672
233.3	3.641
233.98	3.621
234.99	3.6
236	3.58
237.02	3.566
238.03	3.552
238.93	3.542
239.55	3.535
240.4	3.529
241.07	3.525
242.09	3.525
242.76	3.529
243.61	3.529
244.12	3.532
245.13	3.535
246.15	3.546
246.65	3.549
247.5	3.552
248.17	3.563
249.19	3.57
249.86	3.573
250.71	3.583
251.22	3.583
252.23	3.59
253.24	3.597
253.75	3.597
254.6	3.604
255.27	3.611
256.29	3.614
256.96	3.617
257.81	3.621
258.32	3.624
259.33	3.631
260.34	3.635
260.85	3.635
261.7	3.638
262.37	3.638
263.39	3.645
264.06	3.648
264.91	3.648
265.41	3.652
266.43	3.652
267.44	3.652
267.95	3.652
268.8	3.652
269.47	3.652
270.49	3.652
271.16	3.648
272.01	3.648
272.51	3.645
273.53	3.635
274.54	3.631
275.05	3.631
275.89	3.628
276.57	3.617
277.59	3.611
278.26	3.6
279.11	3.593
279.61	3.59
280.63	3.576
281.64	3.559
282.15	3.549
282.99	3.539
283.67	3.529
284.68	3.511
285.36	3.498
286.21	3.484
286.71	3.474
287.73	3.457
288.74	3.436
289.25	3.423
290.09	3.405
290.77	3.388
291.78	3.368
292.46	3.351
293.31	3.33
293.81	3.313
294.83	3.279
295.84	3.245
296.35	3.228
297.19	3.207
297.87	3.19
298.88	3.176
299.56	3.17
300.4	3.163
300.91	3.159
301.93	3.156
302.94	3.153
303.45	3.149
304.29	3.146
304.97	3.142
305.98	3.139
306.66	3.135
307.5	3.132
308.01	3.125
309.02	3.118
310.04	3.112
310.55	3.105
311.39	3.101
312.07	3.098
313.08	3.088
313.76	3.084
314.6	3.081
315.11	3.077
316.12	3.081
317.14	3.091
317.65	3.094
318.49	3.098
319.17	3.094
320.18	3.081
320.86	3.081
321.7	3.07
322.21	3.064
323.22	3.057
324.24	3.047
324.74	3.043
325.59	3.033
326.27	3.026
327.28	3.019
327.96	3.012
328.8	3.006
329.31	2.999
330.32	2.992
331.34	2.975
331.84	2.971
332.69	2.961
333.37	2.958
334.38	2.954
335.06	2.951
335.9	2.944
336.41	2.941
337.42	2.937
338.44	2.934
338.94	2.934
339.79	2.934
340.46	2.924
341.48	2.924
342.16	2.92
343	2.92
343.51	2.92
344.52	2.92
345.54	2.917
346.04	2.917
346.89	2.917
347.56	2.913
348.58	2.906
349.25	2.903
350.1	2.903
350.61	2.9
351.62	2.896
352.63	2.886
353.14	2.886
353.99	2.882
354.66	2.882
355.68	2.876
356.35	2.869
357.2	2.869
357.71	2.869
358.72	2.862
359.73	2.859
360.24	2.855
361.09	2.848
361.76	2.845
362.78	2.841
363.45	2.838
364.3	2.828
364.81	2.828
365.82	2.818
366.83	2.811
367.34	2.807
368.19	2.794
368.86	2.787
369.88	2.773
370.55	2.759
371.4	2.746
371.9	2.742
372.92	2.725
373.93	2.708
374.44	2.705
375.29	2.691
375.96	2.681
376.98	2.667
377.65	2.653
378.5	2.636
379	2.63
380.02	2.609
381.03	2.592
381.54	2.582
382.38	2.565
383.06	2.551
384.07	2.53
384.75	2.517
385.6	2.506
386.1	2.493
387.12	2.469
388.13	2.445
388.64	2.431
389.48	2.411
390.16	2.394
391.17	2.373
391.85	2.353
392.7	2.329
393.2	2.318
394.22	2.291
395.23	2.267
395.74	2.254
396.58	2.233
397.26	2.212
398.27	2.189
398.95	2.168
399.79	2.141
400.3	2.124
401.32	2.096
402.33	2.062
402.84	2.048
403.68	2.018
404.36	1.997
405.37	1.963
406.05	1.939
406.89	1.905
407.4	1.888
408.42	1.854
409.43	1.816
409.94	1.799
410.78	1.768
411.46	1.737
412.47	1.689
413.15	1.659
413.99	1.618
414.5	1.601
415.51	1.553
416.53	1.488
417.04	1.467
417.88	1.423
418.56	1.392
