Uv/Vis Spectrum: Ethanone, 1-(2-thienyl)-
Formula: C6H6OS
CAS: 88-15-3
Melting point: 10.5
Boiling point: 213.5
Instrument: unknown
Origin: INSTITUTE OF ENERGY PROBLEMS OF CHEMICAL PHYSICS, RAS
Wavelength (nm)	Logarithm epsilon
234.3	3.467
235.13	3.501
235.8	3.535
236.63	3.569
237.46	3.602
238.12	3.636
238.79	3.67
239.62	3.704
240.12	3.738
241.12	3.767
241.95	3.797
242.95	3.822
244.11	3.844
245.27	3.865
246.44	3.886
247.36	3.9
248.03	3.911
248.5	3.918
249.1	3.928
249.28	3.931
249.43	3.932
249.61	3.935
249.75	3.938
249.93	3.941
250.07	3.943
250.26	3.945
250.72	3.949
251.26	3.953
251.92	3.958
252.59	3.962
253.25	3.966
253.92	3.97
254.58	3.97
255.24	3.969
255.91	3.966
256.58	3.962
257.24	3.953
257.91	3.941
258.57	3.932
259.24	3.924
261.73	3.907
263.06	3.89
264.39	3.877
265.72	3.86
267.22	3.848
268.72	3.844
270.21	3.839
271.71	3.835
273.21	3.835
274.7	3.835
276.2	3.844
277.7	3.848
279.19	3.844
280.69	3.831
282.02	3.818
283.35	3.797
284.51	3.772
285.68	3.746
286.55	3.719
287.39	3.685
288.09	3.656
288.84	3.624
289.47	3.594
290.17	3.56
290.77	3.529
291.5	3.497
292.04	3.465
292.66	3.429
293.33	3.395
293.99	3.361
294.82	3.332
295.49	3.298
296.32	3.264
296.98	3.23
297.81	3.196
298.48	3.163
299.31	3.129
300.14	3.099
300.97	3.07
301.81	3.04
302.47	3.006
303.14	2.972
304.13	2.947
304.96	2.917
305.8	2.883
306.63	2.85
307.29	2.816
307.96	2.782
308.79	2.748
309.62	2.714
310.45	2.685
311.28	2.651
312.11	2.617
312.78	2.583
313.61	2.554
314.44	2.524
315.11	2.49
315.94	2.456
316.77	2.427
317.6	2.397
318.27	2.363
319.26	2.338
320.1	2.308
321.09	2.279
321.92	2.249
322.92	2.219
323.75	2.19
324.75	2.16
325.75	2.131
326.75	2.101
327.74	2.076
328.74	2.05
329.74	2.021
330.9	1.995
331.9	1.966
332.9	1.936
333.9	1.911
334.89	1.881
335.89	1.856
337.05	1.83
338.05	1.801
339.05	1.775
339.88	1.746
341.05	1.72
342.21	1.695
343.54	1.674
344.87	1.657
346.2	1.64
347.53	1.619
348.69	1.594
349.52	1.564
350.39	1.53
351.02	1.5
351.69	1.467
352.35	1.433
353.02	1.399
353.52	1.361
353.81	1.33
354.18	1.285
354.51	1.247
354.85	1.209
355.18	1.171
355.68	1.133
