Uv/Vis Spectrum: Phenanthrene, 9-methyl-
Formula: C15H12
CAS: 883-20-5
Melting point: 90-91
Instrument: Unicam spectrophotometer
Origin: INSTITUTE OF ENERGY PROBLEMS OF CHEMICAL PHYSICS, RAS
Wavelength (nm)	Logarithm epsilon
219.93	4.771
220.41	4.751
220.9	4.731
221.39	4.707
221.87	4.688
222.36	4.668
222.84	4.644
223.33	4.629
223.82	4.604
224.3	4.585
224.79	4.565
225.27	4.551
225.76	4.531
226.25	4.512
226.73	4.492
227.22	4.468
227.7	4.448
228.19	4.429
228.68	4.419
229.16	4.399
229.65	4.385
230.13	4.375
230.62	4.37
231.11	4.37
231.59	4.375
232.08	4.385
232.56	4.395
233.05	4.414
233.54	4.434
234.02	4.453
234.51	4.478
234.99	4.492
235.48	4.512
235.97	4.521
236.45	4.526
236.94	4.551
237.42	4.565
237.91	4.585
238.4	4.595
238.88	4.609
239.37	4.624
239.85	4.639
240.34	4.658
240.83	4.673
241.31	4.688
241.8	4.702
242.28	4.717
243.26	4.731
243.74	4.736
244.23	4.741
245.93	4.756
246.66	4.771
247.14	4.78
247.63	4.795
248.12	4.805
248.6	4.819
249.09	4.829
249.82	4.839
250.3	4.834
250.79	4.824
251.28	4.814
251.76	4.795
252.25	4.751
252.73	4.727
253.22	4.697
253.71	4.673
254.19	4.639
254.68	4.604
255.16	4.57
255.65	4.536
256.14	4.517
256.62	4.492
257.11	4.453
257.59	4.429
258.08	4.404
258.57	4.39
259.05	4.37
259.54	4.351
260.02	4.341
260.51	4.326
261	4.316
261.73	4.297
263.43	4.272
263.91	4.263
264.4	4.258
264.88	4.258
265.37	4.263
265.86	4.268
266.34	4.268
266.83	4.268
267.31	4.263
269.26	4.214
269.74	4.204
270.23	4.204
270.72	4.214
271.2	4.229
271.69	4.233
273.15	4.229
273.63	4.219
274.36	4.199
274.85	4.18
275.58	4.16
276.06	4.141
276.55	4.131
277.04	4.111
277.52	4.102
278.01	4.087
278.49	4.082
278.98	4.077
279.47	4.077
279.95	4.092
280.44	4.116
280.92	4.126
281.41	4.121
282.87	4.102
283.6	4.087
284.08	4.067
284.57	4.053
285.05	4.028
285.54	3.999
286.03	3.979
286.51	3.965
287	3.975
287.48	4.009
287.97	4.038
288.46	4.067
289.67	4.092
290.16	4.106
290.64	4.15
291.13	4.175
291.62	4.194
292.59	4.194
293.07	4.18
293.56	4.165
294.05	4.131
294.53	4.062
295.02	4.014
295.5	3.848
295.99	3.545
296.48	3.457
296.96	3.306
297.45	3.096
297.93	3.022
298.42	2.983
298.91	2.905
299.39	2.817
299.88	2.725
300.36	2.676
300.85	2.642
301.34	2.612
301.82	2.593
302.31	2.578
303.04	2.554
303.52	2.549
306.93	2.539
307.41	2.534
307.9	2.52
308.38	2.52
308.87	2.524
309.36	2.544
309.84	2.563
310.33	2.578
311.06	2.593
311.54	2.598
312.52	2.578
313.49	2.539
313.97	2.529
314.46	2.515
314.95	2.5
315.43	2.49
315.92	2.49
316.4	2.49
316.89	2.495
317.38	2.515
317.86	2.539
318.35	2.573
318.83	2.603
319.32	2.612
319.81	2.612
320.29	2.603
320.78	2.583
321.26	2.559
321.75	2.529
322.24	2.495
322.72	2.471
323.21	2.461
323.69	2.466
324.18	2.529
324.67	2.612
325.15	2.7
325.64	2.725
326.12	2.725
326.61	2.71
327.1	2.686
327.58	2.651
328.07	2.622
328.55	2.588
329.04	2.559
329.53	2.529
330.01	2.495
330.5	2.466
330.98	2.437
331.47	2.412
331.96	2.397
332.44	2.412
332.93	2.48
333.41	2.529
334.63	2.524
335.12	2.5
335.6	2.461
336.09	2.402
336.57	2.349
337.06	2.3
337.55	2.241
338.03	2.212
338.52	2.202
339	2.217
339.49	2.295
339.98	2.598
340.46	2.637
340.95	2.739
341.43	2.764
341.92	2.769
342.41	2.754
342.89	2.734
343.38	2.671
343.86	2.583
344.35	2.544
344.84	2.456
345.32	2.388
345.81	2.319
346.29	2.236
346.78	2.192
347.27	2.153
347.75	2.124
348.24	2.09
