Uv/Vis Spectrum: Benzoic acid, 2-iodo-
Formula: C7H5IO2
CAS: 88-67-5
Melting point: 160-162
Instrument: Unicam SP 800
Origin: INSTITUTE OF ENERGY PROBLEMS OF CHEMICAL PHYSICS, RAS
Wavelength (nm)	Logarithm epsilon
218.71	4.239
220.06	4.226
221.24	4.209
222.42	4.188
223.43	4.168
224.44	4.147
225.62	4.127
226.8	4.106
227.64	4.082
228.82	4.062
230	4.042
231.18	4.024
232.53	4.007
233.88	3.99
235.23	3.973
236.57	3.956
237.92	3.943
239.44	3.936
240.96	3.926
242.47	3.915
243.65	3.895
244.66	3.871
245.68	3.851
246.69	3.83
247.7	3.81
248.88	3.793
250.06	3.775
250.9	3.752
251.91	3.728
252.59	3.7
253.26	3.673
253.77	3.646
254.27	3.619
254.78	3.588
254.94	3.557
255.28	3.526
255.62	3.496
255.79	3.465
256.12	3.434
256.46	3.404
256.8	3.373
257.14	3.342
257.47	3.312
257.98	3.284
258.48	3.257
258.99	3.226
259.5	3.199
260	3.172
260.84	3.144
261.52	3.117
262.53	3.093
263.54	3.073
264.89	3.059
266.24	3.046
267.75	3.046
269.27	3.049
270.79	3.059
272.14	3.073
273.48	3.086
274.83	3.1
276.01	3.121
277.19	3.141
278.37	3.161
279.55	3.179
280.73	3.199
281.91	3.216
283.09	3.233
284.27	3.25
285.62	3.264
286.97	3.274
288.32	3.291
289.66	3.305
291.18	3.308
292.7	3.308
294.22	3.308
295.73	3.305
297.08	3.291
298.6	3.281
299.95	3.264
301.13	3.247
302.31	3.226
303.32	3.206
304.33	3.182
305.34	3.161
306.18	3.138
306.86	3.11
307.7	3.086
308.37	3.059
309.05	3.032
309.72	3.005
310.06	2.974
310.9	2.947
311.58	2.919
312.25	2.892
312.75	2.865
313.26	2.837
313.93	2.81
314.44	2.783
315.11	2.756
315.62	2.728
316.29	2.701
316.97	2.674
317.47	2.643
318.15	2.616
318.65	2.588
319.16	2.561
319.67	2.534
320.17	2.507
320.68	2.479
321.35	2.452
321.69	2.421
322.19	2.394
322.7	2.367
323.2	2.339
323.71	2.312
324.38	2.285
324.89	2.258
325.4	2.23
325.9	2.203
326.41	2.176
326.91	2.148
327.59	2.121
328.09	2.09
328.6	2.063
329.1	2.036
329.61	2.009
330.11	1.981
330.62	1.954
331.13	1.927
331.8	1.899
332.31	1.869
332.81	1.838
333.32	1.807
333.82	1.777
334.33	1.749
334.83	1.722
335.34	1.691
335.85	1.661
336.35	1.633
336.86	1.606
337.36	1.579
