Uv/Vis Spectrum: 1,4-Diphenyl-1,3-Butadiene
Formula: C16H14
CAS: 886-65-7
Melting point: 33-35
Boiling point: 102( 0.1)
Instrument: Beckman DU
Origin: INSTITUTE OF ENERGY PROBLEMS OF CHEMICAL PHYSICS, RAS
Wavelength (nm)	Logarithm epsilon
330.035	1.93764
329.459	1.97873
329.004	2.01166
328.629	2.03982
328.289	2.06664
327.944	2.09552
327.551	2.12987
327.07	2.1731
326.459	2.22863
326.459	2.22863
326.175	2.2604
325.892	2.29218
325.61	2.32397
325.329	2.35578
325.048	2.38759
324.769	2.41941
324.49	2.45124
324.213	2.48307
323.935	2.51491
323.659	2.54676
323.383	2.5786
323.108	2.61046
322.833	2.64231
322.558	2.67417
322.284	2.70603
322.01	2.73789
321.736	2.76975
321.462	2.80161
321.189	2.83346
320.916	2.86532
320.642	2.89717
320.369	2.92901
320.096	2.96085
319.822	2.99269
319.548	3.02452
319.274	3.05634
319	3.08815
318.725	3.11996
318.45	3.15175
318.175	3.18354
317.899	3.21531
317.622	3.24707
317.345	3.27882
317.068	3.31055
316.789	3.34227
316.51	3.37398
316.23	3.40566
315.95	3.43734
315.668	3.46899
315.668	3.46899
315.283	3.50294
314.895	3.53687
314.502	3.57075
314.102	3.60458
313.693	3.63835
313.274	3.67204
312.841	3.70564
312.393	3.73914
311.928	3.77252
311.444	3.80578
311.444	3.80578
310.658	3.84306
309.872	3.88031
309.088	3.91753
308.305	3.95473
307.526	3.99192
306.749	4.0291
306.749	4.0291
306.051	4.04685
305.117	4.07386
304.442	4.09007
304.442	4.09007
304.029	4.10717
303.264	4.12341
302.853	4.13947
302.853	4.13947
301.771	4.15933
300.598	4.18856
299.747	4.21254
299.747	4.21254
298.008	4.24172
296.425	4.27667
294.367	4.30259
294.367	4.30259
293.286	4.31934
291.488	4.33627
290.169	4.35199
290.169	4.35199
289.266	4.3574
288.25	4.36424
286.427	4.37463
286.427	4.37463
283.383	4.3743
280.916	4.36861
278.067	4.35199
278.067	4.35199
277.045	4.34138
275.574	4.32837
274.299	4.3188
274.299	4.3188
273.643	4.3082
272.42	4.29595
271.444	4.28123
271.444	4.28123
269.432	4.25604
267.318	4.22581
265.729	4.1953
265.729	4.1953
265.601	4.19471
265.474	4.19401
265.348	4.19324
265.348	4.19324
264.762	4.17688
263.627	4.15669
262.587	4.1405
262.587	4.1405
261.259	4.11486
259.311	4.07972
257.264	4.04737
255.61	4.03013
255.61	4.03013
253.845	4.01147
251.857	4.01242
250.197	4.03424
250.197	4.03424
249.88	4.03869
249.624	4.0436
249.266	4.04942
249.266	4.04942
248.745	4.06058
247.61	4.08209
246.312	4.10834
246.312	4.10834
245.76	4.11647
245.025	4.1286
244.315	4.13947
244.315	4.13947
242.272	4.16089
240.26	4.18344
238.205	4.20304
236.036	4.21563
236.036	4.21563
233.364	4.21556
231.49	4.21511
229.496	4.21389
226.53	4.21151
226.53	4.21151
224.077	4.20466
222.721	4.20027
221.319	4.19633
221.319	4.19633
219.44	4.19738
217.606	4.20199
215.855	4.21239
214.22	4.23081
214.22	4.23081
212.924	4.26084
211.756	4.29291
210.695	4.32658
209.72	4.36142
208.811	4.39701
208.811	4.39701
207.272	4.42998
205.632	4.45392
203.754	4.47214
