Uv/Vis Spectrum: 2-Cyclopropen-1-one, 2,3-diphenyl-
Formula: C15H10O
CAS: 886-38-4
Melting point: 119-120
Instrument: Unicam SP 700
Origin: INSTITUTE OF ENERGY PROBLEMS OF CHEMICAL PHYSICS, RAS
Wavelength (nm)	Logarithm epsilon
198.45	4.537
198.53	4.535
198.62	4.535
198.7	4.535
198.79	4.535
198.87	4.533
198.96	4.533
199.04	4.533
199.13	4.53
199.21	4.53
199.3	4.53
199.38	4.53
199.47	4.528
199.55	4.528
199.64	4.528
199.73	4.526
199.81	4.518
200.16	4.513
200.5	4.509
200.85	4.505
201.2	4.496
201.55	4.488
201.9	4.477
202.25	4.469
202.6	4.46
202.96	4.454
203.31	4.439
203.67	4.424
204.03	4.403
204.38	4.38
204.74	4.35
205.11	4.326
205.47	4.301
205.83	4.278
206.2	4.256
206.57	4.237
206.93	4.216
207.3	4.199
207.68	4.186
208.05	4.171
208.42	4.165
208.8	4.159
209.17	4.159
209.55	4.159
209.93	4.159
210.31	4.161
210.69	4.165
211.07	4.167
211.46	4.169
211.84	4.171
212.23	4.178
212.62	4.18
213.01	4.184
213.4	4.188
213.79	4.193
214.19	4.199
214.58	4.203
214.98	4.197
215.38	4.201
215.78	4.207
216.18	4.214
216.59	4.222
216.99	4.231
217.4	4.235
217.81	4.244
218.21	4.246
218.63	4.252
219.04	4.254
219.45	4.256
219.87	4.256
220.28	4.256
220.7	4.254
221.12	4.252
221.55	4.248
221.97	4.246
222.39	4.244
222.82	4.241
223.25	4.239
223.68	4.237
224.11	4.235
224.55	4.237
224.98	4.237
225.42	4.241
225.86	4.244
226.3	4.244
226.74	4.244
227.18	4.239
227.63	4.231
228.07	4.218
228.52	4.207
228.97	4.197
229.43	4.188
229.88	4.18
230.34	4.178
230.79	4.173
231.25	4.156
231.72	4.127
232.18	4.088
232.64	4.046
233.11	4.01
233.58	4.006
234.05	3.982
234.52	3.935
235	3.878
235.48	3.836
235.95	3.795
236.44	3.761
236.92	3.727
237.4	3.693
237.89	3.666
238.38	3.636
238.87	3.608
239.36	3.587
239.85	3.564
240.35	3.544
240.85	3.525
241.35	3.504
241.85	3.489
242.36	3.474
242.87	3.464
243.37	3.453
243.89	3.449
244.4	3.445
244.91	3.447
245.43	3.451
245.95	3.455
246.47	3.462
247	3.472
247.53	3.483
248.05	3.493
248.58	3.503
249.12	3.513
249.68	3.524
250.23	3.535
250.81	3.547
251.32	3.559
251.83	3.571
252.37	3.584
252.93	3.598
253.5	3.61
254.01	3.621
254.58	3.636
255.14	3.655
255.7	3.672
256.27	3.691
256.83	3.71
257.4	3.729
257.98	3.748
258.55	3.765
259.13	3.782
259.71	3.804
260.29	3.825
260.87	3.842
261.46	3.859
262.05	3.876
262.65	3.897
263.24	3.916
263.84	3.933
264.44	3.948
265.04	3.967
265.65	3.982
266.26	4.001
266.87	4.02
267.49	4.037
268.1	4.052
268.72	4.071
269.35	4.091
269.97	4.105
270.6	4.122
271.24	4.135
271.87	4.152
272.51	4.167
273.15	4.178
273.79	4.19
274.44	4.205
275.09	4.216
275.75	4.229
276.4	4.237
277.06	4.248
277.72	4.258
278.39	4.269
279.06	4.282
279.73	4.292
280.41	4.305
281.09	4.318
281.77	4.331
282.45	4.343
283.14	4.354
283.84	4.363
284.53	4.371
285.23	4.38
285.93	4.386
286.64	4.39
287.35	4.397
288.06	4.399
288.78	4.399
289.5	4.399
290.22	4.399
290.95	4.399
291.68	4.399
292.41	4.399
293.15	4.399
293.89	4.401
294.64	4.407
295.39	4.411
296.14	4.42
296.9	4.431
297.66	4.439
298.43	4.443
299.2	4.45
299.97	4.45
300.75	4.443
301.53	4.431
302.31	4.418
303.1	4.399
303.9	4.377
304.69	4.35
305.5	4.331
306.3	4.309
307.11	4.297
307.93	4.288
308.74	4.28
309.57	4.271
310.4	4.267
311.23	4.261
312.06	4.258
312.91	4.25
313.75	4.246
314.6	4.235
315.46	4.207
316.32	4.173
317.18	4.125
318.05	4.071
318.92	4.027
319.8	3.957
320.68	3.882
321.57	3.831
322.47	3.789
323.36	3.748
324.27	3.71
325.18	3.676
326.09	3.646
327.01	3.615
327.93	3.581
328.86	3.549
329.79	3.519
330.66	3.491
331.53	3.466
332.46	3.443
333.21	3.427
334.05	3.408
334.89	3.389
335.85	3.364
337.19	3.331
338.45	3.296
339.44	3.264
340.43	3.232
341.43	3.2
342.44	3.164
343.45	3.128
344.47	3.088
345.5	3.037
346.53	3.003
347.57	2.956
348.61	2.913
349.66	2.873
350.72	2.824
351.78	2.779
352.85	2.733
353.92	2.69
355.01	2.631
356.1	2.588
357.19	2.548
358.29	2.493
359.4	2.446
360.52	2.391
361.64	2.325
362.77	2.261
