Uv/Vis Spectrum: 2-Nitroaniline
Formula: C6H6N2O2
CAS: 88-74-4
Melting point: 71.2
Boiling point: 284
Instrument: n.i.g.
Origin: INSTITUTE OF ENERGY PROBLEMS OF CHEMICAL PHYSICS, RAS
Wavelength (nm)	Logarithm epsilon
526.482	0.583675
525.46	0.634941
524.624	0.675751
523.927	0.711411
523.321	0.747225
522.759	0.788487
522.759	0.788487
521.75	0.824347
520.404	0.887988
519.051	0.949683
518.014	0.979685
518.014	0.979685
516.432	1.05973
515.073	1.1287
513.907	1.18785
512.904	1.23838
512.037	1.28153
511.276	1.31851
510.594	1.35055
509.965	1.37888
509.362	1.40471
508.757	1.42928
508.125	1.4538
507.439	1.4795
506.675	1.5076
505.805	1.53933
505.805	1.53933
504.683	1.56933
503.11	1.631
501.559	1.69463
500.494	1.73048
500.494	1.73048
499.41	1.79634
498.415	1.83981
497.37	1.87772
496.135	1.92688
496.135	1.92688
495.179	1.95332
494.217	1.99756
493.269	2.024
493.269	2.024
490.933	2.11679
489.31	2.17686
488.214	2.21526
487.467	2.24304
486.895	2.27126
486.895	2.27126
485.295	2.31303
483.119	2.38575
481.543	2.42752
481.543	2.42752
481.419	2.44104
481.259	2.45456
481.08	2.46807
481.08	2.46807
480.568	2.47428
480.021	2.48049
479.457	2.4867
479.457	2.4867
478.647	2.53038
477.777	2.56589
476.661	2.60429
475.116	2.65661
472.968	2.73392
472.968	2.73392
472.332	2.74478
471.425	2.77342
469.827	2.8267
467.13	2.91146
467.13	2.91146
466.086	2.92981
464.796	2.96052
463.507	2.98405
463.507	2.98405
463.399	2.992
463.259	3.00018
463.101	3.00847
463.101	3.00847
462.578	3.01171
462.056	3.01518
461.534	3.01877
461.534	3.01877
460.608	3.05008
459.685	3.08161
458.766	3.11327
458.766	3.11327
454.464	3.20429
452.5	3.24589
451.814	3.26884
451.814	3.26884
450.069	3.29582
447.675	3.33712
444.881	3.38644
441.929	3.43744
439.047	3.4838
439.047	3.4838
432.297	3.55963
428.149	3.60686
425.683	3.6341
424.072	3.64994
422.533	3.66299
422.533	3.66299
421.281	3.66549
420.009	3.66798
418.731	3.67048
418.731	3.67048
416.86	3.66873
414.992	3.66688
413.115	3.66478
413.115	3.66478
409.382	3.64408
406.418	3.62709
403.714	3.61079
400.789	3.59217
397.19	3.56819
392.501	3.53586
386.365	3.49213
386.365	3.49213
381.835	3.44324
377.189	3.39653
374.521	3.37279
374.521	3.37279
374.188	3.36547
373.857	3.35815
373.526	3.35083
373.526	3.35083
371.574	3.33085
369.633	3.31087
367.691	3.29088
367.691	3.29088
365.187	3.2548
363.205	3.22698
362.012	3.207
362.012	3.207
359.22	3.17185
356.473	3.13312
354.508	3.10882
354.508	3.10882
353.361	3.09346
352.729	3.08637
352.07	3.08147
352.07	3.08147
350.265	3.04535
348.468	3.00923
346.672	2.97311
346.672	2.97311
346.247	2.96978
345.805	2.96622
345.355	2.96254
345.355	2.96254
340.576	2.87351
337.7	2.8191
336.147	2.79019
335.393	2.77764
334.942	2.77232
334.942	2.77232
334.311	2.7515
333.595	2.73252
332.39	2.68301
332.388	2.68628
332.385	2.68979
332.383	2.69341
332.188	2.69911
332.188	2.69911
330.637	2.67876
328.907	2.65063
327.169	2.62297
327.169	2.62297
327.016	2.61486
326.771	2.60916
326.225	2.60099
326.225	2.60099
325.857	2.60026
325.481	2.5993
325.091	2.59822
325.091	2.59822
324.354	2.58608
323.57	2.57693
322.074	2.56293
322.074	2.56293
320.361	2.56201
318.658	2.56085
316.958	2.55958
316.958	2.55958
315.997	2.56573
315.117	2.57329
313.571	2.58872
313.571	2.58872
311.133	2.63351
309.853	2.66056
308.618	2.69305
308.618	2.69305
307.748	2.73266
307.339	2.74865
307.039	2.75471
307.039	2.75471
306.419	2.81463
305.971	2.85647
305.567	2.8912
305.077	2.92979
304.377	2.98321
304.377	2.98321
304.106	2.99112
303.822	2.99926
303.531	3.00752
303.531	3.00752
303.374	3.04295
303.154	3.06531
302.684	3.09375
302.684	3.09375
302.237	3.1015
301.79	3.10936
301.345	3.11746
301.345	3.11746
300.368	3.15339
299.805	3.17771
299.169	3.21127
299.169	3.21127
298.794	3.21917
298.419	3.22729
298.045	3.23553
298.045	3.23553
297.79	3.23617
297.522	3.23703
297.247	3.238
297.247	3.238
297.203	3.24528
297.146	3.25255
297.081	3.25982
297.081	3.25982
296.28	3.2774
295.483	3.29508
294.689	3.313
294.689	3.313
294.647	3.31822
294.592	3.32355
294.53	3.3291
294.53	3.3291
293.283	3.3523
292.034	3.37549
290.788	3.39868
290.788	3.39868
289.781	3.41271
288.768	3.42696
287.756	3.44132
287.756	3.44132
286.23	3.45525
284.708	3.4694
283.196	3.48366
283.196	3.48366
278.805	3.48262
277.15	3.48081
276.723	3.4767
276.723	3.4767
275.278	3.46757
273.842	3.45844
272.41	3.4493
272.41	3.4493
272.232	3.44563
272.055	3.44195
271.878	3.43827
271.878	3.43827
268.439	3.42814
266.976	3.425
266.178	3.42616
266.178	3.42616
265.053	3.43521
263.028	3.4481
261.28	3.46048
261.28	3.46048
261.161	3.46373
261.041	3.46721
260.922	3.4708
260.922	3.4708
259.969	3.47391
259.342	3.4772
258.724	3.47864
257.177	3.49182
256.74	3.49603
256.3	3.50048
255.852	3.50504
254.228	3.51507
253.536	3.52562
252.896	3.53665
252.375	3.54169
252.375	3.54169
251.58	3.55037
250.786	3.55916
249.986	3.56818
249.986	3.56818
249.941	3.57181
249.897	3.57544
249.852	3.57907
249.852	3.57907
248.451	3.59282
247.504	3.60378
246.197	3.62136
246.197	3.62136
245.544	3.63526
244.894	3.64928
244.247	3.66353
244.247	3.66353
243.805	3.68687
243.367	3.70663
242.929	3.72824
242.929	3.72824
242.721	3.73508
242.508	3.7462
242.287	3.75513
242.287	3.75513
242.073	3.77216
241.854	3.78874
241.636	3.81687
241.636	3.81687
241.286	3.84178
240.87	3.86608
240.035	3.91063
240.035	3.91063
239.551	3.92663
239.065	3.94263
238.572	3.95863
