Uv/Vis Spectrum: Benzene, 1-methyl-2-nitro-
Formula: C7H7NO2
CAS: 88-72-2
Melting point: oil
Instrument: Unicam SP 500
Origin: INSTITUTE OF ENERGY PROBLEMS OF CHEMICAL PHYSICS, RAS
Wavelength (nm)	Logarithm epsilon
214.08	3.916
214.93	3.892
215.78	3.868
216.79	3.844
217.98	3.824
219.17	3.807
220.19	3.787
221.03	3.763
221.88	3.736
222.39	3.709
223.07	3.682
223.75	3.655
224.26	3.627
225.45	3.607
226.46	3.583
227.65	3.563
229.18	3.553
230.7	3.553
232.23	3.563
233.42	3.58
234.78	3.594
235.96	3.614
237.15	3.631
238.17	3.655
239.19	3.675
240.2	3.695
241.39	3.712
242.58	3.732
243.77	3.749
245.12	3.763
246.48	3.773
247.84	3.783
249.19	3.794
250.72	3.797
252.25	3.797
253.77	3.794
255.3	3.787
256.83	3.78
258.19	3.766
259.54	3.749
260.56	3.729
261.75	3.709
262.94	3.688
263.95	3.665
264.8	3.641
265.82	3.621
266.67	3.597
267.52	3.57
268.36	3.546
269.04	3.519
269.89	3.495
270.57	3.468
271.42	3.444
272.27	3.417
273.11	3.39
273.96	3.363
274.98	3.339
275.83	3.312
276.85	3.289
277.86	3.268
279.05	3.251
280.41	3.234
281.77	3.221
283.29	3.217
284.82	3.214
286.35	3.214
287.87	3.204
289.4	3.2
290.93	3.197
292.28	3.183
293.64	3.173
295	3.163
296.18	3.146
297.54	3.129
298.73	3.109
299.92	3.092
300.93	3.072
301.95	3.048
303.14	3.028
304.16	3.007
305.01	2.984
306.02	2.963
306.87	2.939
307.72	2.916
308.74	2.892
309.76	2.872
310.6	2.845
311.45	2.817
312.3	2.794
313.15	2.767
314	2.743
314.84	2.716
315.69	2.689
316.37	2.662
317.05	2.634
317.9	2.607
318.75	2.584
319.76	2.563
320.95	2.543
322.31	2.529
323.83	2.523
325.36	2.516
326.89	2.512
328.42	2.509
329.94	2.506
331.47	2.502
333	2.496
334.52	2.489
336.05	2.485
337.58	2.482
339.1	2.472
340.63	2.465
342.16	2.455
343.68	2.451
345.21	2.441
346.74	2.434
348.09	2.421
349.62	2.411
351.15	2.401
352.5	2.384
353.86	2.367
355.22	2.35
356.57	2.336
357.93	2.319
359.29	2.302
360.65	2.285
362	2.268
363.19	2.248
364.38	2.228
365.57	2.211
366.75	2.19
367.77	2.17
368.96	2.15
370.15	2.129
371.16	2.109
372.18	2.089
373.2	2.068
374.22	2.045
375.23	2.024
376.25	2.004
377.27	1.98
378.46	1.96
379.48	1.936
380.49	1.913
381.51	1.892
382.36	1.869
383.38	1.848
384.23	1.824
385.24	1.801
386.09	1.777
386.94	1.753
387.96	1.73
388.98	1.706
389.82	1.679
390.5	1.652
391.52	1.628
392.37	1.601
393.22	1.577
394.06	1.55
394.91	1.526
395.76	1.503
396.61	1.475
396.95	1.445
397.8	1.421
398.31	1.394
399.32	1.37
400.17	1.343
401.02	1.32
401.7	1.292
402.38	1.265
402.89	1.238
403.56	1.211
404.24	1.184
405.09	1.157
405.6	1.13
406.45	1.106
407.13	1.079
407.81	1.052
408.48	1.025
409.16	0.998
