Uv/Vis Spectrum: Phenol, 2-nitro-
Formula: C6H5NO3
CAS: 88-75-5
Melting point: 44.8
Boiling point: 216
Instrument: n.i.g.
Origin: INSTITUTE OF ENERGY PROBLEMS OF CHEMICAL PHYSICS, RAS
Wavelength (nm)	Logarithm epsilon
447.343	0.332459
446.378	0.365113
445.207	0.418401
445.207	0.418401
442.447	0.518895
440.257	0.599435
438.556	0.662323
437.269	0.709855
436.327	0.744316
435.661	0.768016
435.205	0.783239
434.896	0.79228
434.669	0.797448
434.461	0.801019
434.461	0.801019
434.113	0.828518
433.609	0.853656
432.863	0.885152
431.79	0.931743
430.307	1.00215
430.307	1.00215
429.052	1.04966
428.231	1.08421
427.522	1.10106
427.522	1.10106
426.564	1.15107
425.545	1.19759
424.528	1.24523
423.574	1.29861
423.574	1.29861
422.925	1.30903
422.37	1.32334
421.764	1.33537
421.764	1.33537
419.604	1.42965
417.737	1.51262
416.135	1.58498
414.773	1.64748
413.628	1.70084
412.675	1.74579
411.894	1.78305
411.263	1.81336
410.761	1.83743
410.369	1.856
410.066	1.8698
409.832	1.87955
409.65	1.88598
409.499	1.88982
409.36	1.8918
409.36	1.8918
408.653	1.92657
407.934	1.96161
407.19	1.99678
406.502	2.02779
406.493	2.03156
406.482	2.0356
406.472	2.03977
405.105	2.0772
404.803	2.09209
403.746	2.13184
401.622	2.22501
401.622	2.22501
400.769	2.25051
399.762	2.29235
398.917	2.31785
398.917	2.31785
398.087	2.35817
397.083	2.39794
395.834	2.44697
394.273	2.51509
394.273	2.51509
392.709	2.55431
391.155	2.59365
389.607	2.63307
388.064	2.67255
386.522	2.71205
386.522	2.71205
384.685	2.75184
382.854	2.79166
381.034	2.83153
379.225	2.87148
377.431	2.91155
377.431	2.91155
377.063	2.91223
376.695	2.91316
376.327	2.91424
376.327	2.91424
376.314	2.92025
376.301	2.9264
376.287	2.93281
376.287	2.93281
375.479	2.94206
375.041	2.95234
374.593	2.97249
374.593	2.97249
370.538	3.03265
367.874	3.07222
365.934	3.09997
364.091	3.12467
361.746	3.15508
361.746	3.15508
359.738	3.17605
357.743	3.19716
355.748	3.21853
355.748	3.21853
352.546	3.22666
349.39	3.23505
346.271	3.24357
346.271	3.24357
344.995	3.24313
343.719	3.24269
342.433	3.24225
342.433	3.24225
338.376	3.22051
336.127	3.20778
334.618	3.2017
334.618	3.2017
330.785	3.17167
329.3	3.15821
328.834	3.1498
328.834	3.1498
328.358	3.14884
327.874	3.14762
327.374	3.14625
327.374	3.14625
323.104	3.09789
321.087	3.07223
319.526	3.04727
319.526	3.04727
319.166	3.03754
318.914	3.03102
318.685	3.04396
318.662	3.02477
318.41	3.01865
318.188	3.03972
317.609	3.03091
317.609	3.03091
317.569	3.02592
317.512	3.02066
317.448	3.01526
317.448	3.01526
314.866	2.98633
312.542	2.95855
310.464	2.93299
308.624	2.91072
307.014	2.8928
307.014	2.8928
306.302	2.88289
306.068	2.87862
305.841	2.87448
305.63	2.87061
305.111	2.8875
304.292	2.88388
303.842	2.87882
303.842	2.87882
303.32	2.88057
302.786	2.88257
302.245	2.88471
302.245	2.88471
301.425	2.89453
300.603	2.90435
299.77	2.91417
299.77	2.91417
298.779	2.94436
297.624	2.98207
295.351	3.04883
295.351	3.04883
293.951	3.0837
293.161	3.10699
292.452	3.1254
292.452	3.1254
292.136	3.13788
291.637	3.15334
291.103	3.17451
291.103	3.17451
290.614	3.18447
290.113	3.19442
289.606	3.20437
289.606	3.20437
289.557	3.21156
289.494	3.21888
289.424	3.22646
289.424	3.22646
286.857	3.30159
285.355	3.34908
284.529	3.37655
284.012	3.39164
284.012	3.39164
283.5	3.3974
282.983	3.40329
282.455	3.40944
282.455	3.40944
282.048	3.42362
281.629	3.43779
281.205	3.45196
281.205	3.45196
280.583	3.46185
279.964	3.47188
279.347	3.48217
279.347	3.48217
279.137	3.49003
278.926	3.49816
278.716	3.50642
278.716	3.50642
277.392	3.52469
275.278	3.55918
273.405	3.58752
273.405	3.58752
272.714	3.58943
270.99	3.59569
267.096	3.60618
267.096	3.60618
266.703	3.59874
266.299	3.59116
265.892	3.58331
265.892	3.58331
265.368	3.58001
264.836	3.5767
264.299	3.57339
264.299	3.57339
262.493	3.52583
260.746	3.4819
259.824	3.45563
259.824	3.45563
259.328	3.44602
258.731	3.4293
257.83	3.40466
257.83	3.40466
257.504	3.39231
256.98	3.37371
256.244	3.33833
256.244	3.33833
255.495	3.30906
254.74	3.27966
253.985	3.24999
253.985	3.24999
252.315	3.20526
251.107	3.16909
250.129	3.13766
249.163	3.10719
249.163	3.10719
248.917	3.10104
248.91	3.09171
248.846	3.10399
248.798	3.0851
248.531	3.10078
248.486	3.07557
248.216	3.09758
248.216	3.09758
247.966	3.08111
247.707	3.07037
247.216	3.05615
247.216	3.05615
245.857	3.03208
245.053	3.0189
244.48	3.00814
244.48	3.00814
243.423	3.00742
242.366	3.00669
241.312	3.00595
241.312	3.00595
240.726	3.00931
240.132	3.01294
239.537	3.01669
239.537	3.01669
237.519	3.04753
236.28	3.06839
234.749	3.09716
234.749	3.09716
233.746	3.12534
232.151	3.1628
231.043	3.1849
231.043	3.1849
230.649	3.20316
230.128	3.21999
229.475	3.24245
229.475	3.24245
228.902	3.25639
228.328	3.27033
227.749	3.28427
