Uv/Vis Spectrum: N,N-dimethyl-4-[(phenylimino)methyl]benzenamine
Formula: C15H16N2
CAS: 889-37-2
Melting point: 100
Instrument: Beckman Acta III
Origin: INSTITUTE OF ENERGY PROBLEMS OF CHEMICAL PHYSICS, RAS
Wavelength (nm)	Logarithm epsilon
216.47	4.13
217.648	4.13
218.839	4.132
220.043	4.134
221.26	4.136
222.49	4.139
223.735	4.143
224.993	4.146
226.266	4.15
227.553	4.153
228.855	4.157
230.172	4.16
231.504	4.164
232.852	4.167
233.965	4.168
235.341	4.154
236.734	4.129
238.143	4.092
239.57	4.046
241.013	3.992
242.474	3.933
243.953	3.869
245.45	3.805
246.965	3.744
248.5	3.686
250.053	3.635
251.626	3.589
253.219	3.544
254.832	3.496
256.466	3.442
258.121	3.38
259.828	3.337
261.527	3.304
263.248	3.283
264.992	3.277
266.76	3.286
268.551	3.309
270.366	3.345
272.206	3.391
274.071	3.444
275.961	3.5
277.879	3.559
279.822	3.619
281.794	3.679
283.793	3.737
285.821	3.794
287.878	3.848
289.965	3.901
292.082	3.95
294.231	3.998
296.411	4.042
298.624	4.084
300.87	4.123
303.15	4.158
305.003	4.187
307.346	4.219
309.726	4.25
312.143	4.28
314.598	4.31
317.092	4.34
319.626	4.369
322.2	4.396
324.817	4.422
327.476	4.444
330.179	4.461
332.717	4.475
335.507	4.487
338.345	4.491
341.232	4.489
344.168	4.48
347.155	4.466
350.431	4.444
353.528	4.414
355.713	4.377
357.713	4.356
359.713	4.33
361.713	4.298
363.713	4.26
365.713	4.217
367.713	4.168
369.713	4.113
371.713	4.052
373.713	3.985
375.713	3.912
377.713	3.833
379.713	3.747
381.713	3.655
383.713	3.557
385.713	3.452
387.713	3.341
389.713	3.223
391.713	3.098
393.713	2.967
395.713	2.828
