Uv/Vis Spectrum: 1,2-Benzenedicarboxylic acid
Formula: C8H6O4
CAS: 88-99-3
Melting point: 190
Instrument: Unicam SP 800
Origin: INSTITUTE OF ENERGY PROBLEMS OF CHEMICAL PHYSICS, RAS
Wavelength (nm)	Logarithm epsilon
217.83	4.915
218.67	4.892
219.68	4.871
220.86	4.851
221.87	4.827
223.21	4.811
224.56	4.797
225.9	4.784
227.25	4.773
228.59	4.763
229.94	4.746
231.12	4.726
232.46	4.709
233.64	4.692
234.82	4.672
235.83	4.652
236.67	4.628
237.68	4.608
238.69	4.587
239.53	4.564
240.37	4.54
241.21	4.516
242.05	4.493
242.89	4.469
243.73	4.442
244.57	4.415
245.24	4.388
246.09	4.361
246.59	4.334
247.43	4.31
248.1	4.283
248.95	4.259
249.62	4.232
250.46	4.205
251.3	4.181
252.14	4.158
252.98	4.131
253.99	4.11
254.83	4.087
255.67	4.063
256.68	4.043
257.69	4.022
258.7	3.999
259.71	3.975
260.72	3.951
261.73	3.931
262.91	3.914
264.08	3.894
265.6	3.887
267.11	3.877
268.62	3.877
270.14	3.874
271.65	3.874
273.17	3.87
274.68	3.864
276.02	3.85
277.37	3.836
278.55	3.82
279.73	3.803
280.9	3.782
281.74	3.759
282.75	3.735
283.43	3.708
284.1	3.681
284.6	3.65
285.11	3.62
287.63	3.343
288.81	3.197
289.98	3.038
291.16	2.91
292.34	2.751
293.52	2.612
