Uv/Vis Spectrum: N,N-dimethyl-N'--(phenylmethylene)-1,4-benzenediamine
Formula: C15H16N2
CAS: 889-38-3
Melting point: 99
Instrument: Beckman Acta II
Origin: INSTITUTE OF ENERGY PROBLEMS OF CHEMICAL PHYSICS, RAS
Wavelength (nm)	Logarithm epsilon
220.576	3.947
221.064	3.95
221.554	3.954
222.046	3.957
222.54	3.961
223.036	3.965
223.535	3.969
224.036	3.973
224.539	3.977
225.044	3.981
225.551	3.986
226.061	3.99
226.574	3.995
227.088	4
227.605	4.005
228.124	4.011
228.646	4.017
229.17	4.023
229.696	4.029
230.225	4.035
230.756	4.042
231.29	4.048
231.826	4.055
232.268	4.064
232.808	4.076
233.352	4.089
233.897	4.102
234.446	4.115
234.997	4.129
235.55	4.142
236.106	4.154
236.665	4.167
237.227	4.178
237.791	4.189
238.358	4.199
238.927	4.208
239.499	4.217
240.074	4.225
240.652	4.232
241.233	4.239
241.816	4.245
242.402	4.251
242.991	4.256
243.583	4.261
244.178	4.266
244.775	4.271
245.376	4.275
245.98	4.28
246.586	4.285
247.03	4.286
247.642	4.29
248.257	4.294
248.874	4.298
249.495	4.301
250.119	4.304
250.747	4.306
251.377	4.308
252.01	4.308
252.647	4.307
253.287	4.306
253.93	4.303
254.577	4.299
255.226	4.295
255.88	4.289
256.536	4.283
257.196	4.276
257.859	4.269
258.526	4.261
259.196	4.253
259.869	4.245
260.486	4.237
261.166	4.228
261.85	4.218
262.537	4.206
263.228	4.194
263.923	4.18
264.622	4.165
265.324	4.15
266.029	4.134
266.739	4.117
267.452	4.101
268.17	4.084
268.891	4.068
269.616	4.054
270.345	4.04
271.077	4.027
271.814	4.016
272.555	4.006
273.3	3.997
274.049	3.989
274.802	3.98
275.559	3.97
276.321	3.959
276.583	3.957
277.246	3.945
277.911	3.938
278.58	3.928
279.252	3.919
279.928	3.913
280.606	3.905
281.288	3.899
281.973	3.893
282.662	3.888
283.354	3.881
284.049	3.876
284.987	3.869
285.801	3.863
286.62	3.857
287.444	3.851
288.273	3.846
289.106	3.841
289.945	3.836
290.788	3.832
291.636	3.829
292.489	3.826
293.347	3.823
294.21	3.821
295.078	3.82
295.951	3.819
296.83	3.819
297.713	3.819
298.602	3.819
299.497	3.82
300.396	3.821
301.301	3.823
302.212	3.825
303.128	3.827
304.05	3.829
304.977	3.832
305.91	3.835
306.849	3.838
307.793	3.841
308.743	3.844
309.7	3.847
310.662	3.851
311.63	3.854
312.604	3.858
313.584	3.861
314.571	3.864
315.563	3.868
316.562	3.871
317.568	3.875
318.579	3.879
319.597	3.883
320.622	3.887
321.653	3.891
322.691	3.895
323.736	3.9
324.788	3.905
325.846	3.911
326.911	3.917
327.983	3.923
329.063	3.93
330.149	3.938
331.243	3.947
332.343	3.956
333.452	3.967
334.567	3.978
335.69	3.991
336.72	4.004
337.857	4.018
339.003	4.031
340.156	4.044
341.317	4.056
342.486	4.069
343.663	4.081
344.848	4.094
346.041	4.106
347.243	4.118
348.453	4.13
349.671	4.142
350.898	4.153
352.134	4.164
353.378	4.175
354.632	4.185
355.894	4.194
357.165	4.203
358.445	4.21
358.746	4.212
360.038	4.218
361.339	4.223
362.649	4.228
363.969	4.233
365.299	4.238
366.638	4.243
367.987	4.249
369.347	4.253
370.716	4.256
372.095	4.258
373.485	4.257
374.885	4.254
376.296	4.248
377.717	4.239
379.149	4.227
380.592	4.214
382.046	4.2
383.511	4.187
383.703	4.185
385.181	4.174
386.671	4.163
387.216	4.16
388.722	4.152
390.239	4.145
391.767	4.135
393.308	4.122
394.861	4.104
396.427	4.082
398.004	4.054
399.595	4.021
401.198	3.982
402.814	3.938
404.443	3.887
406.086	3.831
406.839	3.8
408.501	3.733
410.176	3.662
411.866	3.585
413.569	3.503
415.286	3.416
417.018	3.325
418.765	3.23
420.526	3.133
422.301	3.036
424.092	2.942
425.899	2.853
427.72	2.769
429.558	2.686
431.411	2.593
433.28	2.458
