Uv/Vis Spectrum: Benzoic acid, 5-bromo-2-hydroxy-
Formula: C7H5BrO3
CAS: 89-55-4
Melting point: 159-161
Instrument: Unicam SP 500
Origin: INSTITUTE OF ENERGY PROBLEMS OF CHEMICAL PHYSICS, RAS
Wavelength (nm)	Logarithm epsilon
212.52	4.408
213.71	4.388
214.89	4.367
215.9	4.344
216.58	4.316
217.26	4.289
217.77	4.262
218.44	4.235
218.95	4.208
219.46	4.181
219.97	4.154
220.47	4.124
220.98	4.097
221.66	4.069
222.17	4.042
223.01	4.019
223.86	3.992
225.04	3.971
226.23	3.951
227.58	3.938
229.1	3.931
230.63	3.931
232.15	3.931
233.67	3.924
235.19	3.921
236.55	3.907
237.9	3.89
239.09	3.87
239.93	3.846
240.95	3.822
241.79	3.799
242.64	3.772
243.32	3.745
243.99	3.718
244.67	3.691
245.35	3.663
245.85	3.633
246.36	3.606
246.87	3.579
247.38	3.548
247.71	3.518
248.22	3.491
248.56	3.46
248.9	3.43
249.24	3.4
249.74	3.369
250.08	3.339
250.59	3.308
251.1	3.278
251.44	3.247
251.94	3.217
252.28	3.186
252.79	3.156
253.13	3.125
253.47	3.095
253.97	3.068
254.31	3.037
254.82	3.007
255.16	2.977
255.5	2.946
256	2.916
256.34	2.885
256.68	2.855
257.19	2.828
257.53	2.797
258.04	2.767
258.37	2.736
258.71	2.706
259.22	2.675
259.56	2.645
260.07	2.618
260.57	2.591
260.91	2.56
261.42	2.53
261.76	2.499
262.27	2.469
262.6	2.439
263.11	2.408
263.62	2.381
263.96	2.351
264.63	2.323
265.48	2.3
266.83	2.286
268.19	2.296
269.37	2.313
270.39	2.337
271.4	2.361
272.25	2.388
272.92	2.415
273.6	2.442
274.11	2.472
274.62	2.499
275.29	2.527
275.8	2.554
276.31	2.581
276.82	2.608
277.32	2.635
277.83	2.662
278.51	2.689
279.02	2.716
279.69	2.743
280.2	2.77
280.88	2.797
281.55	2.824
282.06	2.851
282.91	2.878
283.42	2.905
284.26	2.933
284.94	2.96
285.45	2.987
286.46	3.014
286.97	3.044
287.81	3.071
288.32	3.098
289.17	3.125
290.01	3.152
290.86	3.18
291.71	3.203
292.72	3.227
293.4	3.254
294.41	3.278
295.26	3.301
296.11	3.328
297.12	3.349
297.97	3.372
298.98	3.396
300.17	3.416
301.18	3.44
302.2	3.46
303.38	3.477
304.57	3.498
305.58	3.518
306.93	3.531
308.63	3.552
309.98	3.565
311.5	3.572
312.86	3.582
314.38	3.586
315.9	3.586
317.42	3.586
318.95	3.575
320.47	3.569
321.65	3.552
322.84	3.535
324.02	3.515
325.04	3.494
325.88	3.471
327.07	3.45
328.08	3.427
328.93	3.403
329.78	3.379
330.62	3.352
331.47	3.328
332.14	3.301
332.99	3.274
333.67	3.247
334.34	3.22
334.85	3.193
335.53	3.166
336.04	3.139
336.54	3.112
337.05	3.085
337.39	3.054
337.9	3.024
338.41	2.997
338.74	2.966
339.08	2.936
339.59	2.909
339.93	2.878
340.27	2.848
340.77	2.821
341.11	2.79
341.45	2.76
341.79	2.73
342.13	2.699
342.47	2.669
342.8	2.638
343.31	2.608
343.65	2.577
343.82	2.547
344.16	2.516
344.5	2.486
344.67	2.455
345	2.425
345.34	2.395
345.68	2.364
346.02	2.334
346.36	2.303
346.7	2.273
347.03	2.242
347.37	2.212
347.71	2.181
348.05	2.151
348.39	2.12
348.73	2.09
349.06	2.06
349.4	2.029
349.91	2.002
350.42	1.972
350.93	1.945
351.1	1.914
351.43	1.884
351.94	1.853
352.28	1.823
352.62	1.792
352.96	1.762
353.29	1.731
353.63	1.701
354.14	1.674
354.48	1.643
354.82	1.613
355.33	1.582
355.66	1.552
356	1.522
356.51	1.494
356.85	1.464
357.19	1.434
357.69	1.407
358.03	1.376
358.54	1.349
359.05	1.319
359.39	1.288
359.89	1.261
360.4	1.234
360.91	1.207
361.42	1.176
361.92	1.149
362.43	1.122
362.94	1.092
363.45	1.065
363.95	1.034
364.46	1.007
364.97	0.98
365.48	0.95
365.98	0.919
366.49	0.892
367.17	0.865
367.68	0.835
368.18	0.808
368.69	0.781
369.37	0.753
