Uv/Vis Spectrum: Benzenamine, 4-methyl-2-nitro-
Formula: C7H8N2O2
CAS: 89-62-3
Melting point: 117
Instrument: Zeiss PMQ II
Origin: INSTITUTE OF ENERGY PROBLEMS OF CHEMICAL PHYSICS, RAS
Wavelength (nm)	Logarithm epsilon
192.48	4.197
192.56	4.195
192.64	4.195
192.72	4.195
192.81	4.193
192.89	4.193
192.97	4.191
193.05	4.191
193.13	4.191
193.21	4.189
193.29	4.189
193.37	4.186
193.45	4.186
193.53	4.186
193.61	4.184
193.69	4.184
193.77	4.182
193.86	4.182
193.94	4.182
194.02	4.18
194.1	4.18
194.43	4.167
194.92	4.157
195.41	4.144
195.91	4.127
196.41	4.105
196.91	4.084
197.41	4.061
197.92	4.033
198.43	4.001
198.94	3.967
199.45	3.937
199.97	3.903
200.49	3.877
201.01	3.845
201.54	3.809
202.07	3.781
202.6	3.762
203.13	3.749
203.67	3.736
204.21	3.721
204.75	3.712
205.3	3.708
205.84	3.706
206.4	3.708
206.95	3.717
207.51	3.725
208.07	3.732
208.63	3.74
209.19	3.751
209.76	3.759
210.34	3.77
210.91	3.781
211.49	3.794
212.07	3.811
212.66	3.824
213.24	3.843
213.84	3.86
214.43	3.879
215.03	3.898
215.63	3.917
216.23	3.939
216.84	3.96
217.45	3.977
218.07	3.999
218.69	4.02
219.31	4.039
219.94	4.058
220.56	4.073
221.2	4.09
221.83	4.103
222.47	4.116
223.12	4.131
223.76	4.142
224.42	4.152
225.07	4.163
225.73	4.174
226.39	4.18
227.06	4.186
227.73	4.193
228.4	4.197
229.08	4.201
229.77	4.204
230.45	4.204
231.14	4.204
231.84	4.201
232.54	4.195
233.24	4.193
233.95	4.184
234.66	4.18
235.38	4.172
236.1	4.159
236.82	4.148
237.55	4.135
238.29	4.12
239.02	4.099
239.77	4.078
240.52	4.056
241.27	4.031
242.03	3.996
242.79	3.964
243.55	3.924
244.33	3.89
245.1	3.853
245.88	3.819
246.67	3.787
247.46	3.757
248.26	3.734
249.06	3.715
249.87	3.695
250.68	3.683
251.5	3.672
252.32	3.661
253.15	3.651
253.98	3.642
254.82	3.631
255.67	3.623
256.52	3.612
257.37	3.606
258.24	3.597
259.1	3.587
259.98	3.578
260.83	3.57
261.57	3.564
262.44	3.558
263.53	3.548
264.3	3.543
265.35	3.535
266.16	3.531
267.16	3.529
268.15	3.531
269.14	3.534
269.99	3.54
270.94	3.548
271.9	3.557
272.86	3.567
273.83	3.576
274.8	3.587
275.79	3.597
276.78	3.606
277.77	3.614
278.78	3.621
279.79	3.627
280.8	3.629
281.83	3.627
282.87	3.621
283.91	3.608
284.96	3.597
286.02	3.582
287.08	3.563
288.15	3.544
289.23	3.52
290.32	3.49
291.42	3.463
292.53	3.431
293.64	3.39
294.76	3.356
295.89	3.317
297.03	3.275
298.18	3.224
299.34	3.174
300.51	3.123
301.68	3.07
302.87	2.999
304.06	2.942
305.26	2.888
306.48	2.826
307.7	2.767
308.93	2.715
310.18	2.664
311.43	2.632
312.32	2.613
313.56	2.592
315.25	2.564
316.54	2.54
317.85	2.521
319.16	2.504
320.49	2.498
321.83	2.495
323.16	2.498
324.8	2.502
325.91	2.508
327.29	2.521
328.69	2.534
330.09	2.547
331.51	2.564
332.94	2.579
334.39	2.6
335.84	2.621
337.31	2.645
338.8	2.668
340.29	2.688
341.8	2.711
343.32	2.741
344.86	2.764
346.41	2.792
347.97	2.822
349.55	2.854
351.14	2.884
352.74	2.912
354.37	2.942
356	2.969
357.65	2.999
359.32	3.025
361	3.046
362.7	3.076
364.41	3.106
366.14	3.136
367.89	3.168
369.66	3.198
371.44	3.226
373.23	3.256
375.05	3.281
376.88	3.311
378.73	3.335
380.6	3.36
382.49	3.386
384.4	3.405
386.32	3.426
388.27	3.448
390.23	3.467
392.22	3.486
394.22	3.503
396.25	3.522
398.3	3.537
400.36	3.55
402.45	3.565
404.57	3.58
406.7	3.591
408.86	3.601
411.04	3.61
413.24	3.619
415.47	3.623
417.72	3.627
419.99	3.627
422.29	3.623
424.62	3.619
426.97	3.61
429.35	3.601
431.75	3.595
434.18	3.58
436.64	3.567
439.13	3.548
441.64	3.527
444.19	3.499
446.76	3.467
449.36	3.435
452	3.403
454.66	3.354
457.36	3.311
460.09	3.264
462.85	3.217
465.64	3.157
468.47	3.098
471.34	3.025
474.24	2.952
477.17	2.882
480.14	2.799
483.15	2.724
486.2	2.63
489.28	2.559
