Uv/Vis Spectrum: 5,10-dihydro-5-methyyl-10-phenyl phenophosphazine
Formula: C19H16NP
CAS: 896-84-4
Melting point: 159-160
Instrument: SF-4A
Origin: INSTITUTE OF ENERGY PROBLEMS OF CHEMICAL PHYSICS, RAS
Wavelength (nm)	Logarithm epsilon
217.432	4.556
218.932	4.541
220.432	4.521
221.932	4.497
223.432	4.47
224.932	4.442
226.432	4.413
227.932	4.383
229.432	4.354
230.932	4.326
232.432	4.298
233.932	4.271
235.432	4.244
236.932	4.219
238.432	4.194
239.932	4.169
241.432	4.145
242.932	4.122
244.432	4.099
245.932	4.076
247.432	4.054
248.932	4.033
250.432	4.012
251.932	3.993
253.432	3.974
254.932	3.958
256.432	3.943
257.932	3.93
259.432	3.92
260.932	3.913
262.44	3.907
263.69	3.908
265.19	3.919
266.69	3.935
268.19	3.952
269.69	3.969
271.19	3.985
272.69	3.999
274.19	4.011
275.69	4.02
277.19	4.027
278.69	4.032
280.19	4.034
281.69	4.033
283.19	4.03
284.69	4.023
286.19	4.012
287.69	3.996
289.19	3.976
290.69	3.952
292.19	3.924
293.69	3.894
294.887	3.867
296.387	3.842
297.887	3.823
299.387	3.809
300.887	3.798
302.387	3.79
303.887	3.785
305.387	3.781
306.887	3.78
308.387	3.78
309.887	3.781
311.387	3.784
312.887	3.787
314.387	3.79
315.887	3.794
317.387	3.796
318.887	3.797
320.387	3.796
321.887	3.792
323.387	3.785
324.887	3.774
326.387	3.759
327.887	3.739
329.387	3.716
330.887	3.689
331.033	3.684
332.533	3.661
334.033	3.626
335.533	3.582
337.033	3.53
338.533	3.471
340.033	3.407
341.533	3.338
343.033	3.265
344.533	3.187
346.033	3.105
347.533	3.017
349.033	2.922
350.533	2.818
352.033	2.703
