Uv/Vis Spectrum: Ethanone, 1-(2,4-dihydroxyphenyl)-
Formula: C8H8O3
CAS: 89-84-9
Melting point: 147
Instrument: Beckman DU
Origin: INSTITUTE OF ENERGY PROBLEMS OF CHEMICAL PHYSICS, RAS
Wavelength (nm)	Logarithm epsilon
215.68	4.099
215.89	4.098
216.19	4.096
216.73	4.092
217.2	4.085
217.71	4.075
218.21	4.068
218.72	4.055
219.22	4.048
219.73	4.034
220.24	4.017
220.74	4
221.25	3.976
221.75	3.956
222.26	3.915
222.77	3.874
223.27	3.809
223.78	3.731
224.28	3.666
224.79	3.618
225.3	3.587
225.8	3.57
226.31	3.553
226.81	3.536
227.19	3.531
227.82	3.529
228.33	3.536
228.84	3.539
229.34	3.539
229.85	3.536
230.35	3.533
230.86	3.529
231.37	3.522
231.84	3.515
232.38	3.505
232.88	3.492
233.39	3.478
233.9	3.468
234.4	3.447
234.91	3.427
235.41	3.41
235.92	3.386
236.42	3.355
236.93	3.324
237.44	3.29
237.94	3.253
238.45	3.219
238.95	3.174
239.46	3.133
239.97	3.089
240.47	3.048
240.98	3.007
241.48	2.98
241.99	2.932
242.5	2.888
243	2.847
243.51	2.799
244.01	2.741
244.52	2.693
245.03	2.645
245.53	2.598
246.04	2.543
246.54	2.492
247.05	2.444
247.46	2.415
248.06	2.4
248.57	2.416
249.26	2.496
249.81	2.561
250.27	2.615
250.9	2.693
251.26	2.737
251.43	2.768
251.77	2.799
251.94	2.83
252.28	2.86
252.61	2.891
252.78	2.922
253.12	2.952
253.46	2.983
253.63	3.014
253.96	3.045
254.13	3.075
254.47	3.106
254.81	3.137
255.14	3.167
255.48	3.198
255.82	3.229
256.16	3.26
256.49	3.29
257	3.321
257.34	3.352
257.84	3.382
258.35	3.413
258.68	3.444
259.19	3.475
259.87	3.502
260.37	3.533
260.88	3.56
261.38	3.591
261.89	3.621
262.73	3.649
263.24	3.676
264.08	3.703
264.76	3.731
265.43	3.758
266.27	3.785
267.12	3.809
267.96	3.836
268.8	3.86
269.65	3.888
270.66	3.911
271.67	3.935
272.68	3.959
273.86	3.98
275.04	3.997
276.22	4.014
277.57	4.024
279.09	4.027
280.61	4.027
282.12	4.024
283.47	4.01
284.82	3.997
286.17	3.98
287.35	3.963
288.36	3.942
289.38	3.918
290.39	3.898
291.57	3.877
292.58	3.857
293.59	3.836
294.77	3.819
295.95	3.802
297.47	3.792
298.99	3.782
300.51	3.778
302.02	3.782
303.54	3.789
304.89	3.799
306.24	3.809
307.59	3.819
308.94	3.833
310.29	3.847
311.64	3.86
312.98	3.87
314.33	3.881
315.68	3.894
317.2	3.901
318.55	3.911
320.07	3.911
321.59	3.922
323.1	3.925
324.62	3.928
326.14	3.925
327.66	3.922
329.17	3.918
330.52	3.905
332.04	3.898
333.39	3.884
334.74	3.867
336.09	3.85
337.44	3.833
338.62	3.816
339.63	3.792
340.81	3.771
341.82	3.751
342.66	3.727
343.68	3.703
344.69	3.679
345.53	3.652
346.37	3.628
347.05	3.601
347.89	3.577
348.57	3.55
349.24	3.522
349.75	3.495
350.42	3.468
350.93	3.44
351.43	3.41
351.94	3.382
352.45	3.352
352.95	3.321
353.29	3.29
353.79	3.263
354.3	3.232
354.64	3.202
355.14	3.174
355.48	3.144
355.82	3.113
356.32	3.086
356.66	3.055
357.17	3.024
357.67	2.997
358.01	2.966
358.35	2.935
358.68	2.905
359.02	2.874
359.36	2.843
359.7	2.813
360.03	2.782
360.2	2.751
360.54	2.72
360.88	2.69
361.21	2.659
361.38	2.628
361.72	2.598
361.89	2.567
362.06	2.536
362.39	2.505
362.56	2.475
363.07	2.447
363.24	2.417
363.41	2.386
363.74	2.355
364.08	2.325
364.25	2.294
364.59	2.263
364.76	2.232
365.09	2.202
365.43	2.171
365.6	2.14
365.94	2.11
366.27	2.079
366.44	2.048
366.78	2.017
366.95	1.987
367.28	1.956
367.62	1.925
368.07	1.895
368.3	1.867
368.56	1.837
368.8	1.806
368.97	1.775
369.31	1.744
