Uv/Vis Spectrum: Pulegone
Formula: C10H16O
CAS: 89-82-7
Boiling point: 224
Instrument: n.i.g.
Origin: INSTITUTE OF ENERGY PROBLEMS OF CHEMICAL PHYSICS, RAS
Wavelength (nm)	Logarithm epsilon
221.042	3.60675
222.063	3.61711
223.086	3.62718
224.113	3.637
224.113	3.637
224.829	3.64515
225.375	3.65152
225.924	3.65834
226.65	3.66765
227.726	3.68135
227.726	3.68135
228.295	3.68944
228.913	3.6983
229.562	3.70757
230.222	3.71692
230.874	3.72602
231.498	3.73461
232.076	3.74241
232.589	3.74918
233.016	3.75467
233.339	3.75867
233.538	3.76092
233.538	3.76092
233.628	3.76328
233.743	3.76578
233.936	3.76931
234.26	3.7747
234.767	3.78274
235.511	3.79412
236.542	3.80938
236.542	3.80938
236.735	3.81282
236.921	3.81597
237.113	3.81908
237.327	3.82239
237.577	3.82613
237.878	3.83053
238.245	3.83579
238.692	3.84211
239.235	3.84966
239.888	3.85861
240.665	3.86908
241.581	3.88115
241.581	3.88115
242.152	3.88952
242.599	3.89596
242.963	3.90107
243.28	3.90541
243.59	3.90953
243.931	3.91393
244.342	3.91911
244.86	3.92554
244.86	3.92554
245.027	3.92667
245.198	3.92793
245.416	3.92962
245.72	3.93202
246.152	3.93543
246.752	3.94013
247.561	3.94635
248.619	3.95432
249.968	3.96422
249.968	3.96422
250.845	3.9682
251.658	3.96906
252.807	3.96662
252.807	3.96662
253.347	3.96365
253.799	3.96111
254.229	3.95864
254.699	3.95585
255.274	3.95234
256.017	3.94772
256.992	3.94154
258.264	3.93334
258.264	3.93334
258.993	3.93042
259.659	3.92675
260.266	3.92247
260.819	3.91775
261.322	3.91274
261.78	3.90761
262.197	3.90253
262.579	3.89769
262.579	3.89769
263.071	3.88955
263.451	3.88343
263.756	3.87855
264.027	3.87407
264.302	3.86912
264.621	3.86279
264.621	3.86279
264.777	3.86138
264.885	3.8598
265.04	3.85833
265.04	3.85833
265.57	3.84695
265.962	3.83836
266.255	3.83193
266.487	3.82695
266.694	3.82266
266.914	3.81825
267.185	3.81287
267.185	3.81287
267.401	3.80627
267.634	3.79961
267.88	3.79289
268.134	3.78608
268.39	3.77917
268.647	3.77214
268.897	3.76497
269.139	3.75764
269.365	3.75012
269.574	3.74239
269.76	3.73443
269.918	3.7262
269.918	3.7262
270.001	3.7255
270.089	3.72476
270.178	3.72399
270.178	3.72399
270.435	3.71545
270.725	3.70665
271.038	3.69759
271.368	3.68829
271.707	3.67876
272.044	3.66903
272.374	3.6591
272.687	3.649
272.687	3.649
273.168	3.64172
273.615	3.63074
274.001	3.61764
274.296	3.60415
274.472	3.59223
274.472	3.59223
274.764	3.58194
275.05	3.57141
275.331	3.56063
275.61	3.5496
275.888	3.53831
276.168	3.52675
276.452	3.51492
276.741	3.50281
277.038	3.49041
277.345	3.47771
277.664	3.46471
277.996	3.45139
278.344	3.43775
278.71	3.42377
279.095	3.40945
279.502	3.39478
279.933	3.37974
280.39	3.36433
280.875	3.34852
281.389	3.33231
281.935	3.31569
