Uv/Vis Spectrum: Phenol, 2-ethyl-
Formula: C8H10O
CAS: 90-00-6
Melting point: 18
Boiling point: 204.5
Instrument: unknown
Origin: INSTITUTE OF ENERGY PROBLEMS OF CHEMICAL PHYSICS, RAS
Wavelength (nm)	Logarithm epsilon
214.43	3.817
214.59	3.812
214.75	3.808
214.92	3.804
215.08	3.8
215.25	3.796
215.41	3.792
215.57	3.788
215.74	3.783
215.9	3.779
216.07	3.775
216.23	3.771
216.39	3.767
216.56	3.763
216.72	3.758
216.89	3.758
217.38	3.746
217.87	3.725
218.36	3.704
218.85	3.679
219.34	3.658
219.84	3.638
220.33	3.612
220.82	3.579
221.31	3.546
221.8	3.513
222.3	3.467
222.79	3.433
223.28	3.383
223.77	3.342
224.26	3.292
224.75	3.233
225.25	3.183
225.74	3.133
226.23	3.079
226.72	3.021
227.21	2.967
227.7	2.904
228.2	2.85
228.69	2.796
229.18	2.725
229.67	2.658
230.16	2.587
230.66	2.525
231.15	2.442
231.64	2.375
232.13	2.292
232.62	2.221
233.11	2.15
233.61	2.079
234.1	2.004
234.59	1.967
235.08	1.925
235.57	1.887
236.07	1.863
236.56	1.842
237.05	1.821
237.54	1.804
238.03	1.788
238.52	1.771
239.02	1.767
239.51	1.775
240	1.788
240.49	1.812
240.98	1.842
241.48	1.867
241.97	1.896
242.46	1.917
242.95	1.946
243.41	1.969
243.93	2
244.43	2.025
244.92	2.05
245.41	2.079
245.94	2.107
246.42	2.139
246.88	2.166
247.38	2.192
247.88	2.225
248.36	2.258
248.85	2.296
249.34	2.333
249.84	2.362
250.33	2.4
250.82	2.429
251.31	2.467
251.8	2.5
252.3	2.529
252.79	2.567
253.28	2.592
253.77	2.629
254.26	2.654
254.75	2.683
255.25	2.712
255.74	2.737
256.23	2.763
256.72	2.783
257.21	2.804
257.7	2.829
258.2	2.85
258.69	2.871
259.18	2.9
259.67	2.917
260.16	2.938
260.66	2.958
261.15	2.979
261.64	3
262.13	3.021
262.62	3.042
263.11	3.062
263.61	3.079
264.1	3.092
264.59	3.108
265.08	3.125
265.57	3.138
266.07	3.15
266.56	3.167
267.05	3.175
267.54	3.188
268.03	3.196
268.52	3.208
269.02	3.217
269.51	3.233
270	3.25
270.49	3.254
270.98	3.263
271.48	3.267
271.97	3.267
272.46	3.258
272.95	3.242
273.44	3.225
273.93	3.212
274.43	3.204
274.92	3.204
275.41	3.208
275.9	3.217
276.39	3.233
276.89	3.242
277.38	3.25
277.87	3.25
278.36	3.246
278.85	3.225
279.34	3.158
279.84	2.996
280.33	2.908
280.82	2.796
281.31	2.683
281.8	2.587
282.3	2.492
282.79	2.421
283.28	2.342
283.77	2.271
284.26	2.192
284.75	2.125
285.25	2.05
285.74	1.967
