Uv/Vis Spectrum: Benzaldehyde, 2-hydroxy-
Formula: C7H6O2
CAS: 90-02-8
Melting point: -7
Boiling point: 197
Instrument: n.i.g.
Origin: INSTITUTE OF ENERGY PROBLEMS OF CHEMICAL PHYSICS, RAS
Wavelength (nm)	Logarithm epsilon
127.531	1.07951
127.364	1.12253
127.176	1.15512
127.01	1.16034
126.844	1.20402
126.658	1.23596
126.658	1.24704
126.493	1.30115
126.328	1.36047
126.164	1.40936
125.98	1.45304
125.817	1.48498
125.654	1.55538
125.472	1.60428
125.31	1.65317
125.148	1.67989
124.967	1.72357
124.806	1.78876
124.646	1.81027
124.487	1.8533
124.307	1.88589
124.148	1.92957
123.99	1.96738
123.812	2.00519
123.654	2.03191
123.497	2.05408
123.321	2.0971
123.165	2.12448
123.008	2.15121
122.834	2.17859
122.678	2.20532
122.524	2.23791
122.369	2.27572
122.196	2.3031
122.043	2.32983
121.889	2.35721
121.718	2.38393
121.565	2.41131
121.413	2.43804
121.243	2.46542
121.091	2.49215
120.941	2.51953
120.772	2.54625
120.622	2.57363
120.472	2.58993
120.323	2.61666
120.155	2.63882
120.007	2.66555
119.859	2.68706
119.692	2.70922
119.545	2.73074
119.398	2.74703
119.233	2.77963
119.087	2.80114
118.941	2.82265
118.778	2.84417
118.633	2.86568
118.488	2.88784
118.344	2.90936
118.181	2.93087
118.038	2.95238
117.895	2.95825
117.734	2.97976
117.591	3.01757
117.449	3.03908
117.29	3.05016
117.148	3.07167
117.007	3.09319
116.866	3.10948
116.708	3.131
116.568	3.14208
116.428	3.16359
116.272	3.17989
116.133	3.19619
115.994	3.2177
115.838	3.234
115.7	3.25029
115.563	3.26659
115.408	3.28289
115.271	3.29918
115.135	3.3207
114.998	3.33699
114.845	3.35329
114.71	3.36959
114.574	3.38067
114.422	3.3911
114.288	3.40218
114.153	3.41261
114.003	3.42369
113.869	3.43478
113.736	3.44521
113.453	3.46672
113.321	3.47259
113.189	3.48302
112.909	3.50518
112.225	3.53191
111.966	3.54299
111.837	3.54299
111.436	3.55929
111.165	3.55929
110.375	3.56972
108.208	3.57558
107.341	3.5645
107.089	3.5645
106.722	3.55929
106.488	3.55342
105.994	3.53712
105.763	3.53191
105.29	3.5104
105.162	3.50518
105.048	3.49931
104.694	3.48302
104.582	3.48302
104.455	3.47259
104.231	3.45629
103.994	3.43999
103.771	3.42369
103.647	3.41261
103.536	3.40218
103.302	3.38589
103.193	3.3748
103.083	3.36959
102.96	3.34808
102.851	3.34221
102.742	3.33178
102.634	3.3207
102.404	3.3044
102.296	3.29397
102.067	3.27181
101.96	3.26138
101.733	3.24508
101.627	3.234
101.521	3.22356
101.401	3.21248
101.296	3.2014
101.19	3.19619
101.072	3.17989
100.967	3.16946
100.862	3.15838
100.744	3.14729
100.64	3.13686
100.419	3.12057
100.315	3.10427
100.108	3.09905
99.9922	3.07689
99.8893	3.06059
99.7867	3.05016
99.6715	3.04495
99.5693	3.03387
99.4674	3.01757
99.1501	2.99084
99.0363	2.97976
98.8348	2.96346
98.7343	2.94717
98.6215	2.94195
98.5215	2.93087
98.4216	2.92044
98.3096	2.90936
98.2102	2.89827
98.111	2.88784
97.9008	2.87154
97.8022	2.86046
97.6916	2.84417
97.5934	2.83374
97.4954	2.82787
97.3977	2.81744
97.2879	2.80636
97.1906	2.79528
97.0934	2.79006
96.9843	2.77963
96.8876	2.77376
96.6827	2.74703
96.5865	2.73595
96.4906	2.73074
96.3948	2.71444
96.2873	2.70922
96.1919	2.70336
96.0968	2.68706
95.8951	2.67076
95.8006	2.65512
95.6944	2.64925
95.6002	2.63882
95.5062	2.62774
95.4006	2.62252
95.307	2.61666
95.1204	2.60036
94.9228	2.58993
94.8301	2.58993
94.5417	2.56842
94.4383	2.56255
94.1522	2.54625
93.97	2.54104
93.6867	2.52996
93.4951	2.52474
93.3154	2.51953
93.0361	2.52474
92.8471	2.52996
92.67	2.53582
92.5706	2.54104
92.3945	2.54625
92.2957	2.55734
92.2081	2.56255
92.1206	2.56842
92.0224	2.57885
91.9353	2.58993
91.8484	2.59515
91.7616	2.60623
91.6642	2.61666
91.5778	2.62774
91.3946	2.64925
91.3087	2.66033
91.223	2.67076
91.1267	2.68185
91.0413	2.70336
90.956	2.71444
90.8603	2.73074
90.7754	2.75225
90.6906	2.77963
90.606	2.80114
90.511	2.81744
90.4267	2.83374
90.3426	2.86046
90.2482	2.88198
90.1644	2.90936
90.0808	2.93608
89.9869	2.97454
89.9036	3.01235
89.8205	3.03908
89.7271	3.07689
89.6443	3.11535
89.5616	3.16946
89.4791	3.19619
89.3865	3.22878
89.3043	3.25029
89.2223	3.27767
89.1302	3.31027
89.0484	3.33699
88.9669	3.36437
88.8753	3.40218
88.794	3.41261
88.7129	3.43999
88.632	3.46672
88.5411	3.48888
88.4604	3.51561
88.38	3.52669
88.2896	3.55929
88.2094	3.58602
88.1294	3.60753
88.0395	3.63491
87.9598	3.64599
87.8802	3.6675
87.7908	3.6838
87.7115	3.70531
87.6324	3.71574
87.5534	3.73204
87.4647	3.74833
87.386	3.76463
87.3075	3.7705
87.2193	3.78614
87.141	3.79723
87.0629	3.80831
86.9752	3.82982
86.8974	3.84612
86.8197	3.86241
86.7325	3.86763
86.6551	3.87285
86.5778	3.87871
86.4142	3.88393
86.3373	3.88914
86.2607	3.90544
86.1746	3.91131
86.0982	3.91652
86.0219	3.92174
85.9363	3.92695
85.6993	3.93282
85.4731	3.94325
84.9219	3.94912
84.6168	3.94325
84.387	3.93803
84.1585	3.93282
84.0129	3.92695
83.8588	3.92174
83.6331	3.91652
83.5612	3.91131
83.4087	3.90544
83.2657	3.88914
83.1855	3.88393
83.1143	3.87871
82.8926	3.86763
82.8219	3.85655
82.7514	3.85133
82.5316	3.82982
82.3829	3.81352
82.313	3.80831
82.2346	3.79723
82.1651	3.78614
82.0956	3.78093
82.0263	3.7705
81.9484	3.76463
81.8104	3.75942
81.7329	3.73791
81.6642	3.72682
81.5956	3.72161
81.382	3.7001
81.3053	3.6838
81.2373	3.67793
81.1694	3.6675
81.1016	3.66163
81.0255	3.6512
80.958	3.64012
80.8906	3.63491
80.7477	3.61861
80.6053	3.60231
80.5384	3.59123
80.4717	3.58602
80.3968	3.5808
80.3303	3.56972
79.9912	3.53712
79.9172	3.51561
79.8515	3.50518
79.7859	3.49931
79.7122	3.48888
79.5816	3.48302
79.5083	3.4778
79.4433	3.47259
79.2407	3.45107
79.1761	3.44521
79.1116	3.43999
78.9749	3.42369
78.8387	3.4074
78.7748	3.40218
78.6472	3.39631
78.3143	3.38589
78.2512	3.38589
77.7968	3.38067
77.2784	3.38589
77.2169	3.3911
76.9645	3.40218
76.896	3.41261
76.8352	3.41848
76.6457	3.42891
76.4571	3.45107
76.3369	3.45629
76.2695	3.4615
76.2097	3.47259
76.1499	3.4778
76.0828	3.48888
76.0233	3.49931
75.9638	3.50518
75.897	3.5104
75.7121	3.53712
75.6532	3.5482
75.5355	3.57558
75.4695	3.58602
75.4109	3.60231
75.3524	3.61861
75.2867	3.6512
75.2283	3.71053
