Uv/Vis Spectrum: Naphthalene, 1-methyl-
Formula: C11H10
CAS: 90-12-0
Melting point: -30.4
Boiling point: 244.7
Instrument: Beckman DU
Origin: INSTITUTE OF ENERGY PROBLEMS OF CHEMICAL PHYSICS, RAS
Wavelength (nm)	Logarithm epsilon
300.363	2.80166
300.425	2.76713
300.487	2.73275
300.548	2.69868
300.548	2.69868
300.698	2.64509
300.848	2.59151
300.998	2.53792
300.998	2.53792
301.079	2.53374
301.155	2.52971
301.227	2.526
301.227	2.526
301.255	2.4994
301.276	2.47311
301.295	2.44698
301.295	2.44698
301.424	2.41053
301.547	2.37439
301.666	2.33841
301.666	2.33841
301.874	2.29099
302.041	2.25406
302.205	2.21968
302.405	2.1799
302.68	2.12678
303.07	2.05237
303.07	2.05237
303.155	2.04819
303.237	2.04417
303.313	2.04046
303.313	2.04046
303.314	2.03432
303.315	2.02849
303.316	2.02282
303.659	2.0053
303.687	1.97496
303.71	1.94461
303.729	1.91427
303.729	1.91427
303.816	1.89457
303.901	1.87502
303.979	1.85578
303.979	1.85578
304.152	1.80271
304.309	1.75623
304.455	1.71414
304.594	1.67426
304.734	1.63437
304.88	1.59229
305.036	1.54581
305.21	1.49273
305.21	1.49273
305.412	1.44241
305.611	1.39209
305.808	1.34177
306.003	1.29144
306.198	1.24112
306.198	1.24112
306.281	1.22844
306.357	1.21577
306.43	1.20309
306.43	1.20309
306.574	1.19044
306.714	1.17779
306.847	1.16513
306.847	1.16513
307.09	1.15325
307.329	1.14152
307.562	1.1301
307.562	1.1301
307.703	1.12613
307.842	1.12247
307.974	1.11896
307.974	1.11896
308.017	1.11566
308.056	1.11267
308.089	1.10983
308.089	1.10983
308.256	1.10375
308.416	1.09798
308.574	1.09237
308.574	1.09237
308.777	1.07822
308.996	1.06439
309.161	1.05165
309.161	1.05165
309.318	1.04394
309.475	1.03624
309.632	1.02853
309.632	1.02853
309.661	1.0224
309.687	1.01658
309.706	1.01091
309.706	1.01091
309.788	1.00674
309.863	1.00271
309.935	0.999
309.935	0.999
310.043	0.975197
310.192	0.947649
310.301	0.922907
310.301	0.922907
310.385	0.921733
310.467	0.920874
310.542	0.92017
310.542	0.92017
310.736	0.896719
310.959	0.871859
311.192	0.844185
311.192	0.844185
311.391	0.837228
311.591	0.830428
311.79	0.823937
311.79	0.823937
311.971	0.829104
312.121	0.835196
312.368	0.847449
312.368	0.847449
312.544	0.863721
312.666	0.878407
312.841	0.904088
312.841	0.904088
312.939	0.910976
313.038	0.917548
313.136	0.923964
313.136	0.923964
313.159	0.928913
313.176	0.933862
313.19	0.938805
313.19	0.938805
313.36	0.958922
313.509	0.974166
313.763	0.997605
313.763	0.997605
313.847	0.999752
313.928	1.0019
314.003	1.00405
314.003	1.00405
314.084	1.00408
314.158	1.00411
314.23	1.00413
314.23	1.00413
314.433	0.97459
314.635	0.945203
314.838	0.916127
314.838	0.916127
315.082	0.861803
315.277	0.818688
315.444	0.78268
315.601	0.749659
315.769	0.715519
315.967	0.676145
316.216	0.627427
316.536	0.565257
316.536	0.565257
317.062	0.497538
317.373	0.460326
317.734	0.421719
317.734	0.421719
317.801	0.418914
317.862	0.416108
317.92	0.413317
317.92	0.413317
318.882	0.332762
319.255	0.300139
319.356	0.287511
319.356	0.287511
319.438	0.283505
319.513	0.279827
319.585	0.276301
319.585	0.276301
319.61	0.270166
319.629	0.264346
319.644	0.258661
319.644	0.258661
319.769	0.250469
319.887	0.242566
320.002	0.234796
320.002	0.234796
320.046	0.225852
320.086	0.217221
320.309	0.176323
320.524	0.163698
320.738	0.151094
320.953	0.138461
320.953	0.138461
321.464	0.126586
321.726	0.121396
321.962	0.118364
321.962	0.118364
322.047	0.114377
322.129	0.110691
322.205	0.107176
322.205	0.107176
322.46	0.106055
322.716	0.105272
322.971	0.104624
322.971	0.104624
323.265	0.099853
323.662	0.095413
324.505	0.087568
324.505	0.087568
324.586	0.085469
324.661	0.083395
324.732	0.081275
