Uv/Vis Spectrum: Naphthalene, 1-bromo-
Formula: C10H7Br
CAS: 90-11-9
Melting point: -1.8
Boiling point: 281
Instrument: Zeiss PMQ II
Origin: INSTITUTE OF ENERGY PROBLEMS OF CHEMICAL PHYSICS, RAS
Wavelength (nm)	Logarithm epsilon
327.763	1.21439
327.359	1.27585
327.14	1.27815
326.77	1.36905
324.033	1.77158
323.634	1.82873
323.42	1.83103
323.047	1.91152
321.488	2.13603
321.277	2.13808
320.911	2.2206
320.307	2.27802
318.547	2.25687
318.139	2.29295
317.785	2.35441
317.553	2.35646
317.291	2.50674
317.219	2.43695
317.04	2.49001
316.856	2.51313
315.911	2.65103
315.123	2.50695
314.686	2.47958
314.435	2.45854
313.791	2.45226
313.389	2.45636
312.989	2.4861
312.652	2.5539
312.427	2.55595
312.071	2.60269
311.847	2.60474
311.495	2.65554
311.1	2.68527
310.902	2.68732
310.483	2.69168
309.668	2.69608
309.25	2.69815
308.847	2.7152
308.652	2.71725
308.276	2.75967
308.081	2.76172
307.717	2.8148
307.523	2.81686
307.166	2.87628
306.973	2.87833
306.615	2.93548
306.423	2.93778
306.092	2.99695
305.874	2.99697
305.519	3.02874
305.304	3.03105
304.932	3.04378
304.716	3.0438
304.351	3.06287
304.137	3.06493
303.796	3.10735
303.583	3.1094
303.249	3.15817
303.037	3.16022
302.704	3.20899
302.493	3.21129
302.159	3.25777
301.947	3.2578
301.62	3.31088
301.411	3.31293
301.089	3.37007
300.88	3.37238
300.563	3.43358
300.356	3.43589
300.057	3.51638
299.873	3.51843
299.527	3.57151
299.344	3.57356
299.002	3.62867
298.819	3.63072
298.468	3.67518
298.286	3.67748
297.519	3.69026
296.949	3.69032
295.069	3.68825
294.511	3.6906
293.959	3.69903
293.607	3.70339
293.229	3.70343
291.03	3.70775
290.66	3.71007
290.317	3.71646
290.123	3.71851
289.789	3.73352
289.596	3.73558
289.27	3.75896
289.077	3.76102
288.754	3.78644
288.562	3.78849
288.237	3.80985
288.046	3.8119
287.721	3.83326
287.552	3.83531
287.216	3.86707
287.048	3.86913
286.522	3.87553
285.276	3.87365
284.935	3.86735
284.741	3.86103
284.402	3.85472
284.209	3.8484
283.872	3.84413
283.68	3.83781
283.344	3.83379
283.154	3.8295
282.633	3.82321
282.464	3.81892
281.945	3.81264
281.614	3.80837
281.427	3.80433
280.911	3.79805
280.742	3.78944
280.391	3.78314
280.224	3.77681
279.368	3.76855
277.864	3.76671
276.884	3.78358
276.726	3.7836
276.395	3.78999
276.238	3.79001
275.928	3.79639
275.439	3.79874
274.617	3.79657
274.457	3.79024
274.124	3.78622
273.962	3.77762
273.63	3.7736
273.469	3.76499
273.135	3.75666
272.974	3.7483
272.643	3.742
272.482	3.73136
272.151	3.72506
271.992	3.71645
271.663	3.71015
271.505	3.7018
271.178	3.69753
271.019	3.68714
270.693	3.68287
270.534	3.67223
270.209	3.66593
270.05	3.65555
269.724	3.64696
269.568	3.63861
269.245	3.63231
269.091	3.62598
268.772	3.62374
268.618	3.61742
268.299	3.6134
268.147	3.60911
267.682	3.60714
267.365	3.60287
266.756	3.60092
266.295	3.59667
265.836	3.5947
265.687	3.59041
265.377	3.58842
265.228	3.58413
264.918	3.58214
264.77	3.57785
264.46	3.57358
264.311	3.56725
264.002	3.56324
263.854	3.55691
263.544	3.55061
263.395	3.542
263.086	3.5357
262.938	3.52735
262.628	3.51876
262.476	3.50406
262.171	3.49979
261.88	3.48943
261.716	3.48311
261.428	3.47452
261.263	3.46617
260.977	3.45986
260.813	3.45126
260.528	3.44495
260.382	3.4366
260.081	3.4303
259.935	3.42194
259.635	3.41564
259.49	3.40703
259.189	3.3987
259.045	3.39035
258.746	3.38404
258.602	3.37544
258.305	3.36913
258.163	3.36281
257.728	3.3545
257.431	3.34591
256.57	3.33335
256.431	3.32931
256.003	3.32303
255.847	3.31671
255.436	3.30814
255.145	3.29981
254.855	3.29351
254.717	3.28719
254.429	3.28088
254.289	3.27228
254.002	3.26597
253.863	3.25762
253.577	3.25132
253.44	3.24499
253.154	3.23869
253.016	3.23034
252.732	3.22404
252.596	3.21771
252.31	3.20913
252.174	3.20077
251.889	3.19244
251.753	3.18383
251.471	3.17753
251.335	3.16918
251.054	3.16288
250.787	3.15226
250.509	3.14799
250.246	3.14168
250.096	3.13536
249.691	3.13136
249.431	3.12709
248.624	3.11656
248.224	3.11459
246.77	3.11483
246.379	3.11692
245.99	3.1213
245.742	3.12337
245.356	3.12775
245.095	3.13413
244.971	3.13415
244.712	3.14054
244.589	3.14056
244.33	3.14695
244.207	3.14697
243.951	3.15539
243.828	3.15541
243.573	3.16408
243.45	3.1641
243.195	3.17252
243.073	3.17254
242.819	3.18095
242.698	3.18098
242.446	3.19168
242.326	3.19398
242.075	3.20443
241.955	3.20673
241.705	3.21718
241.585	3.21949
241.337	3.23222
241.218	3.23427
240.972	3.24903
240.853	3.25134
240.608	3.2661
240.489	3.26815
240.246	3.28519
240.128	3.2875
239.887	3.30658
239.769	3.30863
239.528	3.3277
239.411	3.32975
239.173	3.35315
239.056	3.3552
238.819	3.37859
238.703	3.38089
238.469	3.40834
238.353	3.41039
238.118	3.43581
238.003	3.43812
237.786	3.46785
237.656	3.4699
237.44	3.49964
237.31	3.50169
237.096	3.53345
236.967	3.53551
236.753	3.56752
236.624	3.56957
236.412	3.60337
236.284	3.60568
236.075	3.64378
235.947	3.64584
235.741	3.68826
235.613	3.69031
235.407	3.7307
235.279	3.73276
235.074	3.77315
234.946	3.7752
234.738	3.80899
234.611	3.8113
234.403	3.84509
234.276	3.8474
234.069	3.88119
233.957	3.88324
233.738	3.92161
233.627	3.92366
233.412	3.96811
233.301	3.97016
233.085	4.01259
232.975	4.01489
232.756	4.05072
232.645	4.05074
232.427	4.08682
232.316	4.08684
232.1	4.12495
231.989	4.12497
231.773	4.16105
231.663	4.1631
231.445	4.19512
231.335	4.19717
231.118	4.22893
231.009	4.23099
230.793	4.26503
230.685	4.26708
230.469	4.29885
230.36	4.30115
230.147	4.33698
230.039	4.33929
229.825	4.37308
229.716	4.3731
229.506	4.4135
229.398	4.41555
229.189	4.45569
229.082	4.45799
228.872	4.4961
228.765	4.49815
228.558	4.54057
228.452	4.54263
228.245	4.58505
228.139	4.58735
