Uv/Vis Spectrum: 1-Naphthalenol
Formula: C10H8O
CAS: 90-15-3
Melting point: 95
Boiling point: 288; 185(40)
Instrument: Beckman DU
Origin: INSTITUTE OF ENERGY PROBLEMS OF CHEMICAL PHYSICS, RAS
Wavelength (nm)	Logarithm epsilon
220	4.30001
221	4.28
222	4.25
223	4.21
224	4.18
225	4.14
226	4.11
227	4.09
228	4.09
229	4.09
230	4.09001
231	4.08
232	4.09
233	4.11
234	4.13
235	4.17
236	4.18
237	4.24
238	4.26
239	4.3
240	4.34001
241	4.37
242	4.37
243	4.37
244	4.38
245	4.38
246	4.38
247	4.38
248	4.37
249	4.32
250	4.28999
251	4.22
252	4.11
253	3.99
254	3.93
255	3.77
256	3.56
257	3.49
258	3.33
259	3.15
260	3.09999
261	3.06
262	3
263	2.96
264	2.94
265	2.91
266	2.89
267	2.87
268	2.85
269	2.85
270	2.85
271	2.87
272	2.88
273	2.89
274	2.91
275	2.93
276	2.94
277	2.96
278	2.98
279	3
280	3.02999
281	3.04
282	3.05
283	3.09
284	3.11
285	3.14
286	3.16
287	3.19
288	3.21
289	3.24
290	3.26
291	3.28
292	3.3
293	3.33
294	3.35
295	3.36
296	3.38
297	3.41
298	3.42
299	3.45
300	3.48001
301	3.5
302	3.54
303	3.54
304	3.56
305	3.58
306	3.6
307	3.62
308	3.64
309	3.65
310	3.67001
311	3.68
312	3.69
313	3.7
314	3.72
315	3.73
316	3.74
317	3.75
318	3.76
319	3.77
320	3.78
321	3.79
322	3.79
323	3.8
324	3.81
325	3.82
326	3.83
327	3.83
328	3.84
329	3.84
330	3.85
331	3.85
332	3.85
333	3.85
334	3.85
335	3.84
336	3.83
337	3.81
338	3.8
339	3.78
340	3.75
341	3.71
342	3.68
343	3.64
344	3.62
345	3.59
346	3.55
347	3.53
348	3.5
349	3.46
350	3.42001
351	3.38
352	3.35
353	3.31
354	3.27
355	3.24
356	3.2
357	3.16
358	3.1
359	3.08
360	3.02999
361	2.99
362	2.94
363	2.91
364	2.87
365	2.84
366	2.8
367	2.75
368	2.7
369	2.66
