Uv/Vis Spectrum: 1-Naphthyl phenyl amine
Formula: C16H13N
CAS: 90-30-2
Melting point: 62
Instrument: unknown
Origin: INSTITUTE OF ENERGY PROBLEMS OF CHEMICAL PHYSICS, RAS
Wavelength (nm)	Logarithm epsilon
211.68	4.688
213.03	4.705
214.54	4.713
216.05	4.717
217.56	4.709
218.74	4.684
219.58	4.654
220.25	4.62
220.76	4.586
221.43	4.553
221.93	4.519
222.61	4.485
223.11	4.451
223.61	4.418
224.29	4.384
224.79	4.35
225.46	4.316
225.97	4.283
226.47	4.249
227.14	4.215
227.65	4.181
228.15	4.148
228.82	4.114
229.83	4.084
231.01	4.063
232.52	4.051
234.03	4.051
235.38	4.063
236.89	4.076
238.24	4.097
239.58	4.114
240.92	4.131
242.27	4.148
243.61	4.16
244.96	4.177
246.3	4.198
247.65	4.215
248.99	4.236
250.34	4.249
251.68	4.262
253.03	4.278
254.54	4.278
255.88	4.266
257.23	4.253
258.4	4.228
259.41	4.203
260.42	4.177
261.26	4.151
262.27	4.122
263.28	4.093
264.29	4.068
265.11	4.042
266.3	4.013
267.19	3.988
268.26	3.965
269.5	3.937
270.67	3.916
271.87	3.895
273.03	3.869
274.34	3.844
275.55	3.823
276.89	3.806
278.24	3.785
279.58	3.764
280.92	3.747
282.03	3.734
283.41	3.721
285.13	3.705
286.64	3.692
288.15	3.679
289.66	3.671
291.18	3.662
292.5	3.656
294.11	3.648
295.71	3.641
297.23	3.641
298.74	3.641
300.25	3.641
301.76	3.646
303.31	3.651
304.83	3.661
306.3	3.671
307.81	3.679
309.32	3.69
310.67	3.7
312.18	3.713
313.73	3.725
315.1	3.735
316.7	3.748
317.9	3.759
319.44	3.774
320.76	3.785
322.1	3.797
323.55	3.81
324.96	3.823
326.3	3.835
327.65	3.848
328.99	3.861
330.34	3.873
331.68	3.886
333.19	3.895
334.54	3.907
336.05	3.911
337.39	3.924
338.91	3.924
340.42	3.924
341.76	3.907
343.11	3.89
344.45	3.869
345.63	3.844
346.47	3.814
347.31	3.785
348.15	3.755
348.99	3.722
349.83	3.692
350.67	3.658
351.38	3.631
352.35	3.595
353.19	3.561
354	3.533
355.04	3.498
355.86	3.469
356.89	3.435
357.72	3.411
358.74	3.38
359.75	3.354
360.62	3.328
361.6	3.3
362.6	3.27
363.5	3.243
364.27	3.217
364.97	3.197
365.63	3.177
365.8	3.173
365.97	3.169
366.13	3.165
366.3	3.16
366.47	3.156
366.64	3.152
366.81	3.148
366.97	3.143
367.14	3.139
367.31	3.135
367.8	3.122
368.66	3.093
369.5	3.063
370.34	3.025
371.18	2.979
372.02	2.924
372.86	2.861
373.7	2.781
374.54	2.675
375.38	2.574
376.22	2.451
377.06	2.329
