Uv/Vis Spectrum: Anthrone
Formula: C14H10O
CAS: 90-44-8
Melting point: 155
Instrument: unknown
Origin: INSTITUTE OF ENERGY PROBLEMS OF CHEMICAL PHYSICS, RAS
Wavelength (nm)	Logarithm epsilon
213.21	4.382
214.37	4.361
215.52	4.336
216.68	4.315
217.83	4.29
218.99	4.264
219.92	4.241
220.97	4.214
221.96	4.189
223.12	4.163
224.11	4.138
225.1	4.113
226	4.086
227.08	4.054
228.05	4.024
229.06	3.999
229.92	3.973
230.88	3.945
231.87	3.915
232.69	3.89
233.85	3.865
235.17	3.844
236.66	3.839
238.14	3.839
239.3	3.86
240.45	3.886
241.44	3.915
242.11	3.949
242.6	3.982
243.26	4.016
243.76	4.05
244.42	4.083
245.08	4.117
245.74	4.151
246.73	4.176
248.05	4.197
249.54	4.205
250.86	4.222
252.09	4.243
252.84	4.273
253.5	4.306
253.99	4.344
254.82	4.378
256.14	4.391
257.63	4.378
258.62	4.353
259.77	4.332
261.09	4.315
262.58	4.302
264.07	4.302
265.55	4.302
267.04	4.294
268.52	4.281
269.85	4.264
271.17	4.252
272.49	4.231
273.64	4.21
274.8	4.184
275.95	4.163
276.95	4.138
277.94	4.113
278.93	4.088
279.92	4.062
280.75	4.038
281.72	4.011
282.68	3.978
283.64	3.949
284.71	3.915
285.7	3.89
286.69	3.865
287.84	3.839
289	3.814
290.32	3.793
291.48	3.768
292.8	3.747
294.12	3.726
295.44	3.709
296.81	3.694
298.25	3.684
299.7	3.671
301.05	3.658
302.37	3.642
303.69	3.625
305.02	3.608
306.17	3.587
307.46	3.563
308.65	3.541
309.8	3.515
310.79	3.49
311.79	3.465
312.78	3.435
313.77	3.406
314.73	3.376
315.58	3.347
316.53	3.314
317.23	3.288
318.08	3.259
318.89	3.225
319.55	3.191
320.21	3.158
320.87	3.124
321.53	3.09
322.52	3.044
323.34	3.015
324.01	2.98
324.66	2.947
325.33	2.914
325.99	2.88
326.65	2.846
327.47	2.813
328.13	2.779
328.96	2.745
329.78	2.712
330.44	2.678
331.1	2.644
331.93	2.611
332.76	2.581
333.58	2.548
334.24	2.514
334.9	2.48
335.66	2.45
336.31	2.421
337.21	2.388
338.02	2.358
339.01	2.325
340.02	2.291
340.85	2.262
341.65	2.23
342.66	2.198
343.65	2.169
344.64	2.14
345.8	2.114
346.79	2.089
347.78	2.064
348.94	2.039
350.09	2.013
351.25	1.988
352.4	1.964
353.56	1.938
354.72	1.912
356.04	1.891
