Uv/Vis Spectrum: Xanthone
Formula: C13H8O2
CAS: 90-47-1
Melting point: 174
Boiling point: 351; 142(3)
Instrument: Unicam SP 500
Origin: INSTITUTE OF ENERGY PROBLEMS OF CHEMICAL PHYSICS, RAS
Wavelength (nm)	Logarithm epsilon
225.545	4.50884
226.056	4.52996
226.056	4.53672
227.938	4.6001
228.101	4.6001
228.265	4.60686
228.428	4.60686
228.428	4.61447
228.776	4.61447
228.776	4.62123
228.94	4.62123
229.124	4.62799
229.962	4.64235
230.31	4.64235
230.474	4.64911
230.637	4.64911
230.821	4.65587
230.985	4.65587
231.844	4.66348
232.171	4.66348
232.355	4.67024
233.03	4.67024
234.216	4.677
234.38	4.68461
235.75	4.68461
236.936	4.677
237.263	4.67024
237.263	4.677
237.775	4.67024
237.959	4.66348
239.145	4.63559
239.145	4.64235
239.472	4.61447
239.472	4.62123
240.842	4.55785
240.842	4.56545
241.353	4.52996
241.353	4.53672
242.376	4.49447
242.703	4.48095
242.867	4.47419
242.867	4.48095
243.051	4.45982
243.051	4.47419
244.237	4.41081
244.237	4.41757
244.401	4.4032
245.771	4.34067
245.935	4.32631
245.935	4.33307
246.098	4.31954
246.098	4.32631
246.282	4.31278
247.121	4.25617
247.121	4.27053
247.284	4.24941
247.284	4.25617
247.468	4.2418
247.468	4.24941
247.632	4.22828
247.632	4.23504
247.796	4.22828
247.98	4.22152
248.818	4.15814
248.818	4.17166
250.188	4.10152
250.352	4.09476
250.516	4.09476
250.7	4.088
251.027	4.088
251.19	4.0804
251.375	4.0804
251.538	4.07364
251.702	4.07364
252.049	4.07364
253.236	4.10913
253.583	4.10913
253.747	4.11589
254.769	4.14377
255.444	4.14377
255.608	4.13701
255.792	4.13701
255.956	4.14377
256.119	4.14377
256.978	4.17166
257.653	4.17166
260.373	4.06688
260.537	4.06688
260.721	4.05927
262.07	4.0035
262.07	4.01026
262.234	3.99674
263.257	3.9266
263.257	3.94012
264.115	3.84885
264.279	3.83533
264.279	3.84209
264.443	3.81421
264.443	3.83533
265.302	3.74407
265.302	3.75083
265.465	3.73646
265.976	3.68745
266.14	3.66632
266.14	3.68069
266.999	3.58942
266.999	3.60379
267.163	3.57506
267.163	3.58266
267.347	3.5683
268.185	3.51928
268.533	3.50492
269.719	3.47027
270.742	3.47027
272.091	3.46267
272.603	3.46267
272.95	3.43478
272.95	3.44915
273.952	3.39253
274.3	3.37225
274.3	3.37901
275.159	3.32999
275.486	3.31563
275.67	3.30887
275.67	3.31563
277.02	3.28098
277.184	3.28098
277.368	3.27338
277.531	3.27338
277.695	3.28098
278.043	3.28098
278.881	3.32239
279.065	3.32999
279.065	3.33675
279.577	3.37901
279.74	3.38577
279.74	3.39253
280.415	3.44238
280.415	3.44915
280.579	3.45591
281.274	3.51252
281.274	3.52604
281.785	3.55393
281.949	3.54041
281.949	3.54717
282.112	3.52604
282.112	3.53365
282.276	3.4914
282.276	3.51928
282.46	3.4914
282.624	3.48379
282.971	3.43478
283.135	3.41365
283.135	3.42802
283.298	3.40013
283.298	3.41365
283.994	3.33675
283.994	3.35788
284.158	3.31563
284.158	3.33675
284.669	3.24549
284.669	3.25225
284.832	3.22436
284.832	3.23873
285.18	3.11958
285.18	3.16098
285.344	2.92944
285.344	2.97169
285.344	3.02831
285.344	3.06972
285.507	2.88043
285.507	2.89479
286.182	2.84578
286.366	2.83141
286.366	2.83818
286.53	2.81705
286.53	2.83141
287.552	2.77564
287.716	2.77564
287.9	2.76804
288.064	2.76804
288.391	2.76804
289.598	2.78916
289.925	2.78916
290.272	2.80353
290.436	2.80353
291.622	2.85254
291.806	2.85254
291.97	2.8593
292.133	2.8593
292.317	2.86606
293.156	2.90155
293.504	2.91592
293.504	2.92268
294.506	2.97845
294.506	2.99282
294.69	2.99282
294.853	2.99958
295.017	2.99958
296.224	3.0562
296.387	3.0562
296.551	3.06296
296.714	3.06296
296.714	3.06972
296.899	3.06972
297.062	3.07732
297.226	3.07732
297.41	3.08408
297.573	3.08408
299.107	3.13986
299.107	3.14746
299.434	3.16098
300.457	3.20324
300.621	3.21
300.621	3.2176
300.805	3.2176
300.968	3.22436
300.968	3.23112
302.154	3.27338
302.339	3.28098
302.339	3.28774
303.688	3.33675
303.852	3.33675
304.2	3.35112
305.386	3.40013
305.549	3.40013
305.897	3.41365
306.572	3.43478
306.756	3.44238
306.92	3.44238
308.269	3.4914
308.453	3.4914
308.781	3.50492
309.967	3.54041
310.314	3.55393
311.153	3.59618
311.153	3.60379
311.5	3.61731
311.5	3.62492
312.36	3.63844
312.687	3.63168
312.687	3.63844
312.871	3.63168
313.198	3.63168
314.057	3.6452
314.221	3.6528
314.221	3.65956
314.568	3.65956
315.243	3.69505
315.407	3.70181
315.57	3.70181
316.94	3.75759
317.104	3.76519
317.268	3.76519
318.29	3.79984
318.474	3.8066
318.638	3.8066
319.661	3.84209
319.824	3.84885
320.847	3.84885
322.196	3.83533
323.73	3.83533
325.1	3.83533
325.939	3.83533
326.103	3.82773
327.309	3.83533
327.8	3.83533
327.984	3.84209
328.311	3.84209
329.845	3.86322
330.009	3.86998
330.193	3.86998
330.193	3.87758
330.52	3.87758
331.706	3.9266
331.89	3.9266
332.217	3.94012
333.076	3.98237
333.424	3.99674
333.424	4.0035
333.588	4.01026
336.308	4.01786
336.308	4.03138
336.983	3.96885
336.983	3.98237
337.146	3.96124
337.494	3.86998
337.494	3.89111
337.657	3.85646
337.657	3.86322
338.005	3.78632
338.005	3.81421
338.169	3.77195
338.169	3.77871
338.516	3.68069
338.516	3.70858
338.68	3.65956
338.68	3.67393
339.028	3.57506
339.028	3.58942
339.191	3.55393
339.191	3.5683
339.702	3.45591
339.702	3.48379
340.214	3.37225
340.214	3.39253
340.377	3.34351
340.377	3.36464
340.725	3.27338
340.725	3.2945
340.889	3.24549
340.889	3.26661
341.236	3.20324
341.236	3.21
341.4	3.17535
341.4	3.19648
341.563	3.16859
342.075	3.07732
342.075	3.09084
342.238	3.0562
342.238	3.06972
342.75	2.97845
342.75	2.99282
342.934	2.96493
342.934	2.97845
343.609	2.90831
343.609	2.92268
343.772	2.89479
343.772	2.90155
344.284	2.81705
344.284	2.83141
344.447	2.80353
344.447	2.81705
344.631	2.7824
344.631	2.79592
344.958	2.71226
344.958	2.74015
345.142	2.6979
345.142	2.71226
345.306	2.69114
345.47	2.64212
345.654	2.60663
345.654	2.63452
346.329	2.53649
346.492	2.51537
346.492	2.52973
346.656	2.50185
346.656	2.50861
347.351	2.43847
347.351	2.44523
347.515	2.4241
347.515	2.43171
348.19	2.36833
348.353	2.35396
348.353	2.36072
348.537	2.3472
349.049	2.29058
349.212	2.26946
349.212	2.28382
