Uv/Vis Spectrum: [1,1'-Biphenyl]-2-amine
Formula: C12H11N
CAS: 90-41-5
Melting point: 51
Boiling point: 299
Instrument: n.i.g.
Origin: INSTITUTE OF ENERGY PROBLEMS OF CHEMICAL PHYSICS, RAS
Wavelength (nm)	Logarithm epsilon
359.133	1.06805
358.616	1.10501
358.053	1.14164
357.46	1.17803
356.852	1.21423
356.243	1.25029
355.649	1.28629
355.084	1.32229
354.562	1.35834
354.098	1.39452
353.705	1.43089
353.705	1.43089
352.928	1.4626
351.875	1.51896
350.964	1.55965
350.964	1.55965
349.616	1.65003
348.413	1.73141
347.342	1.8043
346.396	1.86921
345.564	1.92663
344.838	1.97708
344.211	2.02106
343.673	2.05909
343.218	2.09165
342.837	2.11927
342.523	2.14245
342.269	2.16169
342.068	2.17751
341.913	2.1904
341.797	2.20087
341.712	2.20943
341.652	2.21659
341.61	2.22285
341.579	2.22872
341.552	2.23471
341.552	2.23471
341.208	2.24496
340.846	2.25522
340.474	2.26548
340.474	2.26548
339.105	2.36324
338.076	2.43688
337.324	2.49003
336.791	2.52632
336.42	2.54939
336.154	2.56288
335.938	2.57041
335.716	2.57563
335.716	2.57563
335.468	2.58856
335.229	2.60055
334.971	2.61264
334.666	2.62584
334.286	2.64119
333.802	2.65971
333.188	2.68244
332.418	2.71039
331.466	2.7446
330.307	2.78609
328.918	2.83589
327.278	2.89502
325.369	2.96452
323.172	3.04541
323.172	3.04541
322.634	3.06137
321.637	3.09707
320.359	3.14405
318.976	3.19387
317.657	3.23806
317.657	3.23806
316.402	3.26334
314.97	3.29495
313.035	3.336
310.287	3.38963
310.287	3.38963
308.185	3.42132
306.27	3.44609
304.368	3.46431
302.31	3.47639
299.939	3.4827
297.109	3.48364
297.109	3.48364
295.7	3.46926
293.07	3.44591
289.572	3.40969
289.572	3.40969
288.114	3.38611
286.751	3.36151
285.452	3.33624
284.188	3.31064
282.931	3.28507
281.653	3.25987
280.327	3.23541
278.93	3.21201
277.435	3.19005
275.82	3.16986
275.82	3.16986
273.989	3.17514
272.828	3.18613
271.475	3.20995
271.475	3.20995
270.15	3.24938
268.882	3.28802
267.678	3.32542
266.546	3.36117
265.495	3.39486
264.531	3.42604
263.663	3.4543
262.897	3.47922
262.24	3.50037
261.702	3.51733
261.293	3.54042
261.293	3.54042
261.292	3.53703
261.29	3.53341
261.288	3.52967
261.288	3.52967
260.067	3.56492
258.803	3.58817
257.51	3.61031
256.195	3.63152
254.864	3.65195
253.523	3.67176
252.179	3.69112
250.839	3.71017
249.507	3.72909
248.19	3.74803
246.892	3.76715
245.618	3.78661
244.375	3.80658
244.375	3.80658
243.229	3.82952
242.097	3.85296
240.979	3.87685
239.879	3.90112
238.798	3.92571
237.738	3.95057
236.7	3.97564
235.687	4.00086
234.699	4.02617
234.699	4.02617
231.829	4.09134
229.714	4.14031
228.21	4.17541
227.195	4.19894
226.554	4.21322
226.181	4.22057
225.972	4.22329
225.831	4.235
225.831	4.235
225.83	4.23124
225.828	4.22748
225.827	4.22372
225.827	4.22372
225.47	4.23696
224.68	4.25014
222.804	4.28587
