Uv/Vis Spectrum: 9-Acridinamine
Formula: C13H10N2
CAS: 90-45-9
Melting point: 233
Instrument: unknown
Origin: INSTITUTE OF ENERGY PROBLEMS OF CHEMICAL PHYSICS, RAS
Wavelength (nm)	Logarithm epsilon
226.21	3.817
226.57	3.82
226.93	3.824
227.29	3.827
227.65	3.831
228.01	3.834
228.36	3.838
228.72	3.841
229.08	3.845
229.44	3.848
229.8	3.852
230.52	3.866
231.6	3.894
232.67	3.919
233.75	3.947
234.83	3.968
235.9	3.996
236.98	4.049
238.06	4.087
239.14	4.119
240.21	4.165
241.29	4.246
242.37	4.267
243.44	4.327
244.52	4.383
245.6	4.425
246.68	4.478
247.75	4.52
248.83	4.541
249.91	4.576
250.98	4.65
252.06	4.675
253.14	4.703
254.22	4.756
255.29	4.808
256.37	4.822
257.45	4.822
258.52	4.812
259.6	4.812
260.68	4.791
261.76	4.766
262.83	4.654
263.91	4.576
264.99	4.513
266.06	4.45
267.14	4.323
268.22	4.2
269.3	4.105
270.37	4.056
271.45	3.989
272.53	3.908
273.6	3.852
274.68	3.767
275.76	3.739
276.84	3.704
278.99	3.641
280.07	3.592
281.14	3.546
282.22	3.497
283.3	3.462
284.38	3.455
285.45	3.409
286.53	3.388
287.61	3.36
288.68	3.335
289.76	3.307
290.84	3.289
291.91	3.279
292.99	3.244
294.07	3.208
295.15	3.184
296.22	3.138
297.3	3.117
298.38	3.099
299.45	3.064
300.53	3.043
301.61	3.036
302.69	3.033
304.84	3.047
305.92	3.068
309.15	3.135
310.23	3.145
311.3	3.152
312.38	3.138
313.46	3.113
314.53	3.047
315.61	3.011
316.69	2.948
317.77	2.941
318.84	2.938
319.92	2.945
321	2.962
322.07	2.983
323.15	3.026
324.23	3.043
325.31	3.05
327.46	3.05
329.61	2.973
330.69	2.917
331.77	2.846
333.92	2.776
335	2.755
336.08	2.751
337.15	2.755
338.23	2.758
339.31	2.772
340.39	2.786
341.46	2.804
342.54	2.818
344.69	2.881
345.77	2.892
346.85	2.927
347.93	2.962
349	3.004
350.08	3.011
351.16	3.033
352.23	3.064
353.31	3.078
354.39	3.099
355.47	3.131
356.54	3.149
357.62	3.163
358.7	3.191
359.77	3.212
360.85	3.244
361.93	3.265
363.01	3.293
364.08	3.314
365.16	3.342
366.24	3.37
367.31	3.388
369.47	3.465
370.55	3.486
371.62	3.507
372.7	3.525
373.78	3.546
374.85	3.571
375.93	3.581
377.01	3.609
378.09	3.634
379.16	3.644
380.24	3.676
381.32	3.694
382.39	3.704
383.47	3.739
384.55	3.743
385.62	3.757
386.7	3.764
387.78	3.774
388.86	3.778
389.93	3.774
391.01	3.757
392.09	3.739
393.16	3.722
394.24	3.725
395.32	3.736
396.4	3.743
397.47	3.771
398.55	3.796
400.7	3.841
401.78	3.855
402.86	3.852
403.94	3.848
405.01	3.834
406.09	3.831
407.17	3.824
408.24	3.813
409.32	3.813
410.4	3.813
411.48	3.817
412.55	3.813
413.63	3.792
414.71	3.746
419.02	3.708
421.17	3.729
424.4	3.725
425.48	3.725
426.56	3.722
427.63	3.729
428.71	3.725
429.79	3.718
430.86	3.711
431.94	3.697
433.02	3.694
435.17	3.658
436.25	3.564
437.33	3.567
438.4	3.514
439.48	3.43
440.56	3.402
441.64	3.321
442.71	3.254
443.79	3.184
444.87	3.135
445.94	3.05
447.02	2.98
448.1	2.906
449.18	2.818
450.25	2.713
451.33	2.66
452.41	2.625
453.48	2.544
