Uv/Vis Spectrum: (E,E)-2,2'-[2,7-naphthalenediyldi-2-hydrrazinyl-1-ylidene]bis[propanoic acid], diethyl ester
Formula: C20H24N4O4
CAS: 90713-35-2
Melting point: 186-187
Instrument: Specord
Origin: INSTITUTE OF ENERGY PROBLEMS OF CHEMICAL PHYSICS, RAS
Wavelength (nm)	Logarithm epsilon
201.35	4.31
202.85	4.322
204.35	4.34
205.85	4.358
207.35	4.376
208.85	4.391
210.35	4.401
211.85	4.408
213.35	4.409
214.85	4.405
216.35	4.397
217.85	4.386
219.35	4.372
220.85	4.357
222.35	4.341
223.85	4.326
225.35	4.313
226.85	4.302
228.35	4.295
229.85	4.291
231.35	4.291
232.85	4.294
234.445	4.306
235.945	4.315
237.445	4.324
238.945	4.334
240.445	4.346
241.945	4.358
243.445	4.368
244.945	4.375
246.445	4.379
247.945	4.377
249.445	4.372
250.945	4.362
252.445	4.351
253.945	4.338
253.95	4.339
255.45	4.326
256.95	4.32
258.45	4.315
259.95	4.31
261.45	4.302
262.95	4.29
264.45	4.274
265.95	4.255
267.45	4.233
268.95	4.21
270.45	4.187
271.95	4.165
273.45	4.146
274.95	4.13
276.45	4.119
277.95	4.114
279.45	4.113
280.95	4.118
282.45	4.127
283.95	4.14
285.45	4.156
286.95	4.174
288.45	4.192
288.922	4.199
290.422	4.221
291.922	4.241
293.422	4.261
294.922	4.28
296.422	4.3
297.922	4.32
299.422	4.339
300.922	4.359
302.422	4.378
303.922	4.396
305.422	4.412
306.922	4.428
308.422	4.441
309.922	4.454
311.422	4.464
312.922	4.474
314.422	4.482
315.922	4.49
317.422	4.499
318.922	4.508
320.422	4.518
321.922	4.529
323.422	4.543
324.922	4.558
326.422	4.574
327.922	4.59
329.422	4.605
329.446	4.607
330.946	4.621
332.446	4.637
333.946	4.654
335.446	4.669
336.946	4.682
338.446	4.693
339.946	4.702
341.446	4.709
342.946	4.714
344.446	4.718
345.946	4.721
347.446	4.722
348.946	4.723
350.446	4.722
351.946	4.721
353.446	4.717
354.946	4.712
356.446	4.704
357.946	4.692
359.446	4.677
360.946	4.658
362.446	4.635
363.946	4.609
365.446	4.581
365.505	4.579
367.005	4.553
368.505	4.524
370.005	4.494
371.505	4.463
373.005	4.43
374.505	4.397
376.005	4.364
377.505	4.33
379.005	4.296
380.505	4.262
382.005	4.227
383.505	4.192
385.005	4.157
386.505	4.122
388.005	4.087
389.505	4.051
391.005	4.015
392.505	3.98
394.005	3.944
395.383	3.913
396.883	3.876
398.383	3.839
399.883	3.802
401.383	3.764
402.883	3.728
404.383	3.691
405.883	3.655
407.383	3.619
408.883	3.582
410.383	3.545
411.883	3.507
413.383	3.469
414.883	3.43
416.383	3.391
417.883	3.354
419.383	3.319
