Uv/Vis Spectrum: 1,6-dihydroindolo[5,4-e]indole
Formula: C14H10N2
CAS: 90713-41-0
Melting point: 268-269
Instrument: Specord
Origin: INSTITUTE OF ENERGY PROBLEMS OF CHEMICAL PHYSICS, RAS
Wavelength (nm)	Logarithm epsilon
203.146	4.522
204.646	4.536
206.146	4.552
207.646	4.567
209.146	4.58
210.646	4.594
212.146	4.609
213.646	4.625
215.146	4.639
216.646	4.64
218.146	4.611
219.008	4.573
219.688	4.517
220.141	4.46
220.594	4.414
221.047	4.372
221.5	4.33
221.954	4.298
222.951	4.268
224.451	4.259
225.951	4.279
227.451	4.311
228.951	4.346
230.451	4.389
232.151	4.443
233.651	4.481
235.151	4.518
236.651	4.552
238.151	4.581
239.651	4.601
241.151	4.611
242.651	4.609
244.151	4.593
245.651	4.564
247.151	4.526
248.651	4.484
250.107	4.45
251.607	4.407
253.107	4.379
254.607	4.335
256.107	4.261
257.607	4.153
259.107	4.018
260.607	3.87
262.107	3.727
262.742	3.66
263.689	3.598
265.189	3.522
266.689	3.472
268.189	3.44
269.689	3.421
271.189	3.412
272.689	3.409
274.189	3.413
275.689	3.422
277.189	3.436
278.689	3.454
280.189	3.478
281.689	3.505
283.189	3.536
284.689	3.57
286.189	3.606
287.689	3.643
289.012	3.676
290.512	3.715
292.012	3.756
293.512	3.797
295.012	3.837
296.512	3.875
298.012	3.912
299.512	3.95
301.012	3.988
302.512	4.025
303.975	4.054
305.475	4.077
306.975	4.093
308.475	4.114
309.975	4.142
311.475	4.173
312.975	4.197
314.475	4.207
315.975	4.2
317.787	4.174
319.287	4.152
320.787	4.133
322.287	4.112
323.787	4.09
325.287	4.07
326.665	4.058
328.05	4.069
328.887	4.082
329.998	4.096
331.147	4.088
332.647	4.06
333.902	4.027
335.402	3.988
336.902	3.96
338.402	3.949
339.887	3.937
341.387	3.923
342.826	3.91
344.442	3.91
345.327	3.923
345.993	3.947
346.66	3.968
347.326	3.985
348.659	3.985
349.326	3.971
349.992	3.95
350.214	3.923
