Uv/Vis Spectrum: bis[4-(dimethylamino)phenyl]methanone
Formula: C17H20N2O
CAS: 90-94-8
Melting point: 179
Instrument: SF-4A
Origin: INSTITUTE OF ENERGY PROBLEMS OF CHEMICAL PHYSICS, RAS
Wavelength (nm)	Logarithm epsilon
218.145	3.966
218.331	3.968
219.831	3.952
221.331	3.931
222.831	3.911
224.331	3.899
225.831	3.895
227.331	3.901
228.831	3.917
230.331	3.94
231.831	3.969
233.331	4.002
234.831	4.035
236.331	4.068
237.831	4.1
239.331	4.13
239.361	4.13
240.861	4.16
242.361	4.184
243.861	4.209
245.361	4.238
246.861	4.27
248.361	4.304
249.861	4.337
251.361	4.367
252.861	4.394
254.361	4.418
255.861	4.442
257.086	4.466
258.586	4.489
260.086	4.509
261.586	4.527
263.086	4.543
264.586	4.558
266.086	4.571
267.586	4.58
269.086	4.584
270.586	4.58
272.086	4.563
273.586	4.533
275.086	4.489
276.582	4.433
278.082	4.384
279.582	4.309
281.082	4.224
282.582	4.14
284.082	4.063
285.582	3.997
287.082	3.944
288.582	3.902
290.082	3.87
291.582	3.845
293.082	3.826
294.582	3.811
296.082	3.797
297.582	3.785
299.082	3.773
300.582	3.762
302.079	3.751
303.579	3.741
305.079	3.73
306.579	3.718
308.079	3.704
309.579	3.685
311.079	3.663
312.579	3.636
314.079	3.604
315.579	3.568
317.079	3.527
318.579	3.483
320.079	3.436
321.579	3.385
323.079	3.331
324.579	3.274
326.079	3.214
327.579	3.148
329.079	3.077
330.579	2.997
332.079	2.907
333.579	2.802
335.079	2.677
336.694	2.517
