Uv/Vis Spectrum: 4,4'-Dichlorobenzophenone
Formula: C13H8Cl2O
CAS: 90-98-2
Melting point: 147.5
Boiling point: 353
Instrument: Beckman DU
Origin: INSTITUTE OF ENERGY PROBLEMS OF CHEMICAL PHYSICS, RAS
Wavelength (nm)	Logarithm epsilon
220.665	4.70466
220.738	4.7032
220.89	4.69241
220.964	4.69107
221.108	4.68116
221.19	4.67979
221.334	4.66979
221.417	4.66838
221.56	4.6565
221.643	4.65649
221.788	4.6474
221.861	4.64592
222.015	4.6366
222.088	4.63508
222.242	4.62553
222.315	4.62397
222.469	4.61416
222.542	4.61257
222.697	4.60412
222.77	4.60248
222.924	4.59384
222.998	4.59216
223.151	4.5816
223.225	4.57988
223.38	4.57273
223.453	4.57075
223.607	4.56166
223.681	4.55964
223.909	4.54846
223.982	4.54637
224.136	4.53675
224.21	4.53674
224.365	4.52883
224.512	4.52469
224.667	4.51656
224.813	4.5123
224.968	4.50393
225.042	4.50391
225.197	4.49538
225.27	4.49302
225.426	4.4864
225.573	4.4821
225.728	4.4753
225.884	4.47061
226.342	4.45423
226.488	4.44699
226.874	4.43481
227.021	4.42966
227.249	4.4195
227.333	4.41948
227.553	4.41161
227.709	4.40617
227.939	4.40097
228.094	4.39277
228.315	4.38707
228.775	4.37579
228.931	4.373
229.235	4.3642
229.538	4.35523
229.926	4.35223
230.23	4.34595
231.154	4.34273
232.151	4.33908
232.458	4.34528
233.3	4.34797
233.689	4.35402
233.995	4.3568
234.384	4.36273
234.616	4.36548
234.923	4.37408
235.154	4.37676
235.387	4.38246
235.768	4.39335
236	4.39885
236.306	4.40394
236.391	4.40934
236.624	4.41714
236.772	4.41958
237.079	4.42961
237.164	4.43471
237.313	4.43973
237.471	4.44205
237.621	4.45161
237.779	4.45387
237.854	4.46095
238.012	4.46344
238.088	4.47037
238.321	4.47931
238.481	4.4881
238.714	4.49461
238.789	4.50106
239.022	4.50738
239.098	4.51365
239.256	4.51759
239.331	4.52175
239.489	4.52587
239.565	4.52971
239.798	4.53753
239.873	4.54151
240.031	4.54544
240.107	4.55118
240.341	4.55862
240.425	4.56419
240.575	4.5677
240.734	4.5751
240.883	4.57852
240.968	4.58384
241.117	4.58741
241.202	4.59263
241.351	4.59591
241.427	4.60103
241.585	4.60446
241.661	4.60948
241.819	4.61264
241.978	4.61912
242.128	4.62396
242.213	4.62722
242.362	4.63197
242.438	4.63668
242.596	4.63965
242.672	4.64428
242.83	4.64739
242.906	4.65193
243.065	4.65642
243.14	4.65927
243.299	4.66369
243.375	4.66807
243.533	4.67101
243.608	4.67531
243.767	4.67957
243.843	4.68379
244.001	4.68646
244.077	4.69062
244.236	4.69472
244.312	4.6988
244.461	4.70284
244.547	4.70812
244.696	4.7108
244.781	4.71473
244.93	4.71862
245.016	4.72371
245.165	4.72614
245.241	4.7313
245.4	4.73505
245.475	4.73743
245.635	4.7423
245.71	4.74595
245.869	4.74957
245.946	4.75432
246.104	4.75673
246.18	4.7614
246.339	4.76377
246.415	4.76836
246.574	4.7718
246.649	4.77522
246.808	4.7786
246.885	4.78304
247.043	4.7853
247.119	4.78967
247.269	4.79295
247.354	4.79724
247.504	4.80046
247.589	4.80468
247.739	4.80785
247.825	4.812
247.974	4.81511
248.05	4.8182
248.209	4.82225
248.285	4.82529
248.445	4.8294
248.52	4.83227
248.679	4.83524
248.756	4.8402
248.914	4.84218
248.991	4.84695
249.15	4.84982
249.226	4.85359
249.385	4.85641
249.461	4.86013
249.62	4.86291
249.696	4.86657
249.855	4.86932
249.932	4.87303
250.167	4.87929
250.316	4.88099
250.402	4.88546
250.552	4.88809
250.637	4.89154
250.787	4.89413
250.872	4.89754
251.021	4.89927
251.098	4.90346
251.256	4.90517
251.333	4.90929
251.491	4.91018
251.567	4.91346
251.726	4.91593
251.802	4.91917
251.961	4.92082
252.037	4.92403
252.196	4.92643
252.272	4.92959
252.431	4.93197
252.507	4.93433
252.666	4.93668
252.741	4.93902
252.89	4.94051
252.976	4.94366
253.125	4.94513
253.21	4.94743
253.36	4.94971
253.445	4.95198
253.594	4.95424
253.679	4.95648
253.828	4.95791
253.904	4.96014
254.063	4.96235
254.138	4.96456
254.297	4.96605
254.372	4.96824
254.531	4.96963
254.606	4.9718
254.764	4.97257
254.84	4.97541
254.999	4.97678
255.074	4.97891
255.232	4.97967
255.308	4.98179
255.466	4.98314
255.542	4.98524
255.775	4.98733
255.925	4.99007
256.242	4.99353
256.318	4.99559
256.476	4.99624
256.551	4.99828
256.784	5.0003
257.018	5.00361
257.251	5.00561
257.326	5.00697
257.634	5.01022
257.709	5.01156
257.867	5.01218
257.942	5.01415
258.1	5.01485
258.259	5.0161
258.481	5.01671
258.797	5.01865
259.103	5.01933
259.335	5.02055
259.715	5.02123
260.03	5.02245
261.481	5.02174
262.025	5.02039
262.329	5.01912
262.477	5.01911
262.707	5.01715
262.937	5.0158
263.092	5.01453
263.469	5.01182
263.625	5.01055
263.855	5.00854
263.929	5.00854
264.085	5.00717
264.46	5.00247
264.543	5.00247
264.688	4.99905
264.771	4.99904
264.99	4.99567
265.146	4.99426
265.301	4.99152
265.448	4.99018
265.675	4.98598
265.758	4.98522
265.903	4.98174
265.977	4.98174
266.131	4.97815
266.205	4.97746
266.36	4.97461
266.433	4.97382
266.587	4.96956
266.661	4.96955
266.815	4.96586
266.888	4.96515
267.043	4.96142
267.116	4.9607
267.27	4.95693
267.344	4.95693
267.498	4.95249
267.572	4.95248
267.716	4.94791
267.799	4.94708
267.944	4.94328
268.027	4.94253
268.171	4.93785
268.254	4.93784
268.399	4.93311
268.481	4.93234
268.626	4.92755
268.7	4.92755
268.853	4.9227
268.927	4.92269
269.08	4.917
269.154	4.917
269.308	4.91203
269.382	4.91123
269.535	4.90539
