Uv/Vis Spectrum: Diphenylmethanol
Formula: C13H12O
CAS: 91-01-0
Melting point: 67
Instrument: Cary 11 M
Origin: INSTITUTE OF ENERGY PROBLEMS OF CHEMICAL PHYSICS, RAS
Wavelength (nm)	Logarithm epsilon
211.53	4.217
211.7	4.214
211.86	4.211
212.03	4.204
212.2	4.201
212.37	4.194
212.54	4.19
212.71	4.187
212.88	4.18
213.05	4.177
213.22	4.17
213.39	4.167
213.56	4.163
213.73	4.146
214.24	4.133
214.75	4.126
215.25	4.116
215.76	4.109
216.27	4.099
216.78	4.092
217.29	4.082
217.8	4.079
218.31	4.072
218.81	4.065
219.32	4.055
219.83	4.048
220.34	4.035
220.85	4.021
221.36	4.011
221.86	3.994
222.37	3.97
222.88	3.95
223.39	3.923
223.9	3.899
224.41	3.865
224.92	3.831
225.42	3.794
225.93	3.75
226.44	3.699
226.95	3.642
227.46	3.591
227.97	3.54
228.49	3.496
229	3.456
229.53	3.417
230	3.384
230.51	3.347
231.02	3.303
231.53	3.252
232.03	3.205
232.54	3.147
233.05	3.089
233.56	3.035
234.07	2.981
234.58	2.93
235.09	2.873
235.59	2.818
236.1	2.768
236.61	2.717
237.12	2.666
237.63	2.612
238.14	2.568
238.64	2.52
239.15	2.476
239.66	2.436
240.17	2.395
240.68	2.368
241.19	2.354
241.7	2.344
242.2	2.341
242.71	2.341
243.22	2.344
243.74	2.348
244.24	2.354
244.76	2.364
245.3	2.375
245.77	2.384
246.27	2.396
246.75	2.406
247.25	2.415
247.79	2.427
248.31	2.439
248.83	2.45
249.32	2.459
249.83	2.466
250.34	2.476
250.85	2.48
251.36	2.493
251.87	2.51
252.37	2.527
252.88	2.544
253.39	2.568
253.9	2.575
254.41	2.571
254.92	2.558
255.42	2.544
255.93	2.534
256.44	2.534
256.95	2.541
257.46	2.554
257.97	2.571
258.48	2.595
258.98	2.622
259.49	2.636
260	2.632
260.51	2.619
261.02	2.588
261.53	2.561
262.03	2.527
262.54	2.5
263.05	2.483
263.56	2.48
264.07	2.483
264.58	2.503
265.09	2.52
265.59	2.517
266.1	2.49
266.61	2.459
267.12	2.422
267.63	2.371
268.14	2.351
268.65	2.348
269.15	2.32
269.66	2.263
270.17	2.168
270.68	2.056
271.19	1.944
271.7	1.843
272.2	1.748
272.71	1.667
273.15	1.608
273.64	1.545
274.1	1.482
274.58	1.414
275.09	1.36
275.71	1.306
276.21	1.266
