Uv/Vis Spectrum: Quinoxaline
Formula: C8H6N2
CAS: 91-19-0
Melting point: 28
Boiling point: 229.5
Instrument: Cary Model 11
Origin: INSTITUTE OF ENERGY PROBLEMS OF CHEMICAL PHYSICS, RAS
Wavelength (nm)	Logarithm epsilon
222.86	4.107
223.26	4.099
223.66	4.099
224.06	4.091
224.47	4.083
224.87	4.083
225.27	4.074
225.67	4.074
226.07	4.066
226.47	4.058
227.67	4.033
228.88	4.025
230.08	4.008
233.69	3.959
234.89	3.95
236.1	3.934
237.3	3.934
238.5	3.917
240.91	3.909
242.11	3.909
243.32	3.909
244.52	3.909
245.72	3.917
246.93	3.942
248.13	3.959
249.33	3.992
251.74	4.066
252.94	4.091
254.14	4.116
255.35	4.182
256.55	4.207
257.75	4.264
258.96	4.289
260.16	4.339
261.36	4.355
262.57	4.388
263.77	4.397
264.97	4.421
267.38	4.43
268.58	4.43
269.79	4.43
270.99	4.43
272.19	4.397
273.4	4.372
274.6	4.331
275.8	4.306
277.01	4.264
278.21	4.215
279.41	4.132
280.61	4.05
281.82	3.959
283.02	3.868
284.22	3.669
285.43	3.545
286.63	3.512
287.83	3.355
289.04	3.298
290.24	3.256
291.44	3.165
293.85	3.116
295.05	3.074
296.26	3.058
297.46	3.033
298.66	3.025
299.87	3.017
303.48	2.992
304.68	2.992
308.29	2.992
309.49	3
310.7	3.008
311.9	3.025
313.1	3.033
314.3	3.05
315.51	3.066
316.71	3.074
317.91	3.083
319.12	3.091
320.32	3.116
321.52	3.124
322.73	3.149
323.93	3.165
325.13	3.182
326.34	3.207
327.54	3.223
328.74	3.24
329.95	3.248
331.15	3.273
332.35	3.289
333.56	3.314
334.76	3.331
335.96	3.347
337.17	3.364
338.37	3.388
339.57	3.397
340.78	3.421
341.98	3.438
343.18	3.455
344.39	3.471
345.59	3.488
346.79	3.512
347.99	3.521
349.2	3.545
350.4	3.562
351.6	3.57
352.81	3.595
354.01	3.612
355.21	3.628
356.42	3.645
357.62	3.661
358.82	3.678
360.03	3.694
361.23	3.711
362.43	3.727
363.64	3.744
364.84	3.752
366.04	3.76
367.25	3.769
368.45	3.769
369.65	3.769
370.86	3.769
372.06	3.76
373.26	3.76
374.47	3.752
375.67	3.744
376.87	3.727
378.07	3.727
379.28	3.702
380.48	3.669
381.68	3.645
382.89	3.62
384.09	3.562
385.29	3.529
386.5	3.471
387.7	3.438
388.9	3.355
390.11	3.298
391.31	3.231
392.51	3.157
393.72	3.091
394.92	3
396.12	2.917
397.33	2.876
398.53	2.785
399.73	2.744
400.94	2.678
402.14	2.595
403.34	2.488
404.55	2.38
405.75	2.273
406.95	2.19
408.16	2.025
409.36	1.917
410.56	1.802
411.76	1.636
412.97	1.529
414.17	1.405
415.37	1.231
416.58	1.033
417.78	0.901
418.98	0.678
420.19	0.512
