Uv/Vis Spectrum: Benzene, 1,2-dimethoxy-
Formula: C8H10O2
CAS: 91-16-7
Melting point: 22
Instrument: Unicam SP 800
Origin: INSTITUTE OF ENERGY PROBLEMS OF CHEMICAL PHYSICS, RAS
Wavelength (nm)	Logarithm epsilon
203.55	3.888
204.57	3.908
205.92	3.922
207.11	3.905
207.61	3.878
208.46	3.854
209.14	3.827
209.98	3.8
211	3.776
212.35	3.759
213.7	3.749
215.23	3.749
216.75	3.759
218.1	3.772
219.62	3.783
221.15	3.793
222.5	3.81
223.85	3.823
225.21	3.837
226.73	3.84
228.25	3.844
229.61	3.833
230.96	3.816
232.14	3.796
232.99	3.772
234.01	3.749
234.85	3.725
236.71	3.62
236.88	3.616
237.22	3.579
238.07	3.467
238.91	3.338
239.76	3.233
240.6	3.101
241.45	2.962
242.3	2.826
243.14	2.708
243.99	2.575
244.83	2.45
245.68	2.385
246.52	2.345
247.37	2.335
248.22	2.348
249.06	2.362
249.91	2.385
250.75	2.433
251.6	2.47
252.45	2.518
253.29	2.541
254.14	2.582
256.68	2.66
257.52	2.701
258.37	2.738
259.21	2.779
260.06	2.826
260.91	2.86
261.75	2.894
262.6	2.931
263.44	2.975
264.29	3.009
265.13	3.043
265.98	3.087
266.83	3.121
267.67	3.159
268.52	3.192
269.36	3.22
270.21	3.25
271.06	3.274
271.9	3.294
272.75	3.315
273.59	3.328
274.44	3.342
275.29	3.355
276.13	3.355
276.98	3.359
277.82	3.359
278.67	3.355
279.52	3.348
280.36	3.335
281.21	3.321
282.05	3.301
282.9	3.267
283.74	3.25
284.59	3.22
285.44	3.155
286.28	3.067
287.13	2.928
287.97	2.745
288.82	2.545
291.36	2.063
292.2	1.958
293.05	1.761
293.9	1.602
294.74	1.436
295.59	1.26
296.43	1.093
297.28	0.941
298.12	0.778
298.97	0.615
299.82	0.497
300.66	0.347
301.51	0.218
302.35	0.069
