Uv/Vis Spectrum: 5-(2,4-cyclopentadien-1-ylidene)-1,3-cyclopentadiene
Formula: C10H8
CAS: 91-12-3
Melting point: stable only in solution
Instrument: Zeiss RPQ 20A/C
Origin: INSTITUTE OF ENERGY PROBLEMS OF CHEMICAL PHYSICS, RAS
Wavelength (nm)	Logarithm epsilon
222.565	3.093
224.565	3.077
226.565	3.064
228.565	3.053
230.565	3.044
232.565	3.036
234.565	3.03
236.565	3.025
238.565	3.022
240.565	3.02
242.565	3.019
244.565	3.02
246.565	3.024
248.565	3.032
250.565	3.045
252.565	3.066
254.565	3.096
256.565	3.14
258.565	3.2
259.735	3.248
261.735	3.331
263.735	3.434
265.735	3.508
267.735	3.533
268.812	3.563
270.812	3.656
272.812	3.76
274.655	3.836
276.655	3.893
278.655	3.929
280.655	3.936
282.777	3.923
284.777	3.939
286.777	4.1
288.201	4.246
289.922	4.301
292.111	4.298
294.111	4.247
296.111	4.286
297.139	4.346
299.139	4.484
301.139	4.571
303.139	4.538
305.139	4.434
306.797	4.361
308.797	4.288
310.797	4.294
311.856	4.344
313.856	4.571
315.856	4.668
317.856	4.522
319.514	4.424
321.514	4.24
323.514	3.995
325.514	3.735
327.514	3.492
329.514	3.284
331.514	3.12
333.514	2.999
334.863	2.942
336.863	2.882
338.863	2.831
340.863	2.786
342.863	2.748
344.863	2.714
346.863	2.684
348.863	2.657
350.863	2.633
352.863	2.611
354.863	2.591
356.863	2.572
358.863	2.555
360.863	2.539
362.863	2.524
364.863	2.51
366.863	2.497
368.863	2.485
370.863	2.474
372.863	2.464
374.863	2.455
376.863	2.446
378.863	2.438
380.863	2.431
382.863	2.425
384.863	2.42
386.863	2.415
388.863	2.411
390.863	2.407
392.863	2.404
394.863	2.402
396.863	2.4
398.863	2.399
400.863	2.399
402.863	2.4
404.863	2.401
406.863	2.403
408.571	2.404
410.571	2.41
412.571	2.415
414.571	2.419
416.571	2.422
418.571	2.424
420.571	2.425
422.571	2.424
424.571	2.423
426.571	2.421
428.571	2.418
430.571	2.413
432.571	2.407
434.571	2.401
436.571	2.393
438.571	2.383
440.571	2.373
442.571	2.362
444.571	2.35
446.571	2.338
448.571	2.325
450.571	2.312
452.571	2.299
454.571	2.286
456.571	2.273
458.571	2.261
460.387	2.25
462.387	2.239
464.387	2.227
466.387	2.215
468.387	2.202
470.387	2.189
472.387	2.176
474.387	2.163
476.387	2.15
478.387	2.137
480.387	2.124
482.387	2.111
484.387	2.097
486.387	2.084
488.387	2.071
490.387	2.058
492.387	2.045
494.387	2.031
496.387	2.018
498.387	2.005
500.387	1.992
502.387	1.979
504.387	1.966
506.387	1.952
508.387	1.939
510.387	1.926
512.387	1.913
514.387	1.899
516.387	1.886
518.387	1.873
520.387	1.859
522.387	1.846
524.387	1.832
526.387	1.819
528.387	1.805
530.387	1.792
532.387	1.778
534.387	1.765
536.387	1.751
538.387	1.737
540.387	1.724
542.387	1.71
544.387	1.697
546.387	1.683
548.387	1.67
550.387	1.657
552.387	1.643
554.387	1.63
556.387	1.617
558.387	1.604
560.387	1.59
562.387	1.577
564.387	1.564
566.387	1.551
568.387	1.538
570.387	1.525
572.387	1.512
574.387	1.5
576.387	1.487
578.387	1.474
580.387	1.461
582.387	1.448
584.387	1.435
586.387	1.422
588.387	1.408
590.387	1.395
592.387	1.381
594.387	1.368
596.387	1.354
598.387	1.34
600.387	1.325
602.387	1.311
604.387	1.296
606.387	1.281
608.387	1.266
610.387	1.25
612.387	1.235
614.387	1.219
616.387	1.203
618.387	1.186
620.387	1.17
622.387	1.153
624.387	1.137
626.387	1.121
628.387	1.104
630.387	1.089
632.387	1.073
634.387	1.059
636.387	1.045
638.387	1.032
