Uv/Vis Spectrum: Benzene, 1-methoxy-2-nitro-
Formula: C7H7NO3
CAS: 91-23-6
Boiling point: 272-273
Instrument: Unicam SP 500
Origin: INSTITUTE OF ENERGY PROBLEMS OF CHEMICAL PHYSICS, RAS
Wavelength (nm)	Logarithm epsilon
211.69	4.247
212.54	4.224
213.72	4.203
214.91	4.187
215.92	4.166
216.77	4.143
217.45	4.116
218.13	4.089
218.97	4.065
219.48	4.035
219.99	4.004
220.5	3.977
221.35	3.95
222.02	3.923
222.7	3.896
223.55	3.873
224.4	3.849
225.41	3.829
226.6	3.809
227.61	3.788
229.14	3.782
230.66	3.771
232.19	3.768
233.54	3.755
234.9	3.738
236.25	3.721
237.44	3.704
238.63	3.687
239.81	3.67
241	3.65
242.18	3.63
243.54	3.613
244.89	3.596
246.25	3.582
247.77	3.576
249.3	3.576
250.82	3.576
252.18	3.589
253.53	3.606
254.72	3.623
255.91	3.64
257.09	3.657
258.62	3.667
259.97	3.68
261.33	3.697
262.68	3.711
264.04	3.721
265.56	3.728
267.09	3.731
268.61	3.728
269.97	3.714
271.49	3.707
273.02	3.697
274.54	3.69
275.9	3.68
277.25	3.663
278.61	3.647
279.79	3.63
280.98	3.609
282.17	3.589
283.35	3.572
284.54	3.552
285.55	3.532
286.74	3.512
287.93	3.495
289.11	3.478
290.3	3.461
291.65	3.444
293.01	3.427
294.36	3.41
295.72	3.397
297.07	3.38
298.6	3.373
300.12	3.363
301.65	3.363
303.17	3.363
304.7	3.363
306.05	3.373
307.58	3.377
308.93	3.387
310.46	3.397
311.98	3.4
313.34	3.414
314.86	3.42
316.22	3.431
317.57	3.447
319.1	3.454
320.45	3.464
321.81	3.478
323.33	3.485
324.69	3.495
326.21	3.501
327.57	3.512
329.09	3.518
330.45	3.528
331.97	3.532
333.5	3.535
335.02	3.542
336.55	3.545
338.07	3.545
339.6	3.545
341.12	3.545
342.65	3.545
344.17	3.535
345.7	3.532
347.22	3.528
348.58	3.515
350.1	3.512
351.46	3.498
352.81	3.481
354.34	3.471
355.69	3.458
357.05	3.441
358.4	3.427
359.76	3.41
361.11	3.393
362.47	3.377
363.82	3.36
365.01	3.339
366.36	3.323
367.38	3.302
368.57	3.285
369.58	3.265
370.6	3.245
371.62	3.221
372.8	3.204
373.82	3.184
374.83	3.164
375.68	3.14
376.7	3.117
377.71	3.096
378.56	3.073
379.58	3.049
380.59	3.026
381.44	3.002
382.46	2.978
383.31	2.955
384.15	2.931
385	2.907
385.85	2.88
386.69	2.857
387.37	2.83
388.22	2.806
389.07	2.779
389.91	2.752
390.76	2.725
391.44	2.698
392.28	2.675
392.79	2.648
393.47	2.621
394.15	2.594
394.83	2.567
395.5	2.54
396.18	2.513
396.86	2.486
397.54	2.459
398.21	2.431
398.72	2.404
399.4	2.377
400.08	2.35
400.75	2.323
401.43	2.296
401.94	2.269
402.62	2.242
403.3	2.215
403.8	2.188
404.48	2.161
404.99	2.134
405.5	2.107
406.18	2.08
406.68	2.053
407.19	2.026
407.87	1.999
408.38	1.972
408.72	1.942
409.39	1.915
410.07	1.888
410.58	1.861
411.26	1.834
411.77	1.807
412.44	1.78
412.95	1.753
413.46	1.726
414.14	1.699
414.65	1.672
415.15	1.645
416	1.618
416.51	1.591
417.02	1.564
417.7	1.537
418.37	1.51
418.88	1.483
419.56	1.456
420.07	1.429
420.75	1.402
421.42	1.375
421.93	1.348
422.61	1.321
423.12	1.294
423.63	1.264
424.3	1.237
424.98	1.21
425.66	1.183
426.17	1.156
427.01	1.129
427.69	1.102
428.2	1.075
428.88	1.048
