Uv/Vis Spectrum: Quinoline
Formula: C9H7N
CAS: 91-22-5
Melting point: -14.78
Boiling point: 237.1
Instrument: n.i.g.
Origin: INSTITUTE OF ENERGY PROBLEMS OF CHEMICAL PHYSICS, RAS
Wavelength (nm)	Logarithm epsilon
324.526	0.220605
324.155	0.237971
323.074	0.682659
321.627	1.55988
320.674	1.70539
319.999	1.70933
318.272	1.26345
317.313	1.45155
314.97	2.92795
313.909	3.37314
312.922	3.8009
312.577	3.81775
311.309	3.7661
311	3.76191
310.621	3.36767
310.476	3.46206
310.254	3.17102
309.343	3.12767
309.012	3.14042
308.688	3.14906
308.307	3.17051
307.934	3.21301
307.08	3.3457
306.684	3.40512
306.275	3.47378
305.602	3.49054
305.292	3.49456
304.982	3.49909
301.131	3.57502
300.793	3.57903
300.492	3.58356
300.161	3.60913
299.734	3.67727
299.436	3.68129
298.81	3.68573
298.242	3.67685
297.971	3.63828
297.736	3.59972
297.514	3.55244
296.335	3.52234
295.758	3.52628
295.467	3.53082
295.136	3.53893
294.846	3.54347
290.7	3.58895
290.418	3.59348
290.133	3.60161
289.819	3.60613
289.267	3.61007
288.955	3.61409
288.672	3.62272
288.389	3.63136
288.051	3.65692
287.77	3.66505
287.495	3.66958
286.388	3.64358
285.872	3.63059
285.318	3.6217
282.849	3.62503
282.323	3.62949
281.767	3.63341
280.966	3.62906
279.915	3.6241
275.74	3.61863
274.697	3.61418
273.464	3.59632
272.714	3.58785
271.965	3.58298
271.219	3.57862
270.482	3.56964
269.981	3.56536
269.478	3.56519
268.785	3.55212
268.29	3.54784
267.565	3.54296
265.196	3.51646
264.714	3.51218
261.469	3.46379
260.567	3.45062
257.458	3.39403
257.22	3.38932
256.562	3.37624
255.902	3.36777
255.689	3.36769
255.481	3.36299
255.246	3.3588
255.038	3.35461
254.19	3.33273
253.953	3.33263
253.747	3.32845
252.903	3.31067
252.695	3.31059
252.266	3.29759
252.063	3.2934
251.831	3.29331
250.999	3.27553
250.798	3.27134
249.947	3.25406
249.744	3.25398
249.119	3.245
248.3	3.23184
248.075	3.23175
247.683	3.22286
247.458	3.22277
247.068	3.2144
246.041	3.20114
245.435	3.19217
244.636	3.18311
243.621	3.17857
243.428	3.17849
240.264	3.17302
239.862	3.17695
239.484	3.18089
239.083	3.18533
238.893	3.18935
238.677	3.19798
238.487	3.202
238.299	3.20603
238.087	3.21055
237.898	3.21457
237.504	3.2185
237.304	3.23586
237.117	3.23988
236.908	3.2439
235.726	3.29468
235.526	3.31615
235.323	3.34171
235.082	3.38471
234.846	3.44875
234.592	3.53434
234.327	3.60658
233.81	3.79058
233.565	3.84179
233.321	3.91866
233.074	4.00014
232.812	4.0729
232.742	4.15395
232.463	4.27391
232.229	4.34206
231.983	4.42354
231.728	4.49167
231.474	4.58547
231.244	4.65003
231.034	4.66686
230.839	4.69243
230.658	4.70107
230.46	4.70508
230.301	4.68807
230.143	4.67055
229.971	4.6448
229.831	4.60625
229.684	4.57641
229.519	4.54195
229.38	4.50339
229.237	4.46894
229.052	4.46064
228.902	4.43491
228.332	4.48133
228.134	4.51562
227.918	4.54528
227.718	4.58368
227.524	4.61386
227.317	4.63531
227.135	4.65216
226.273	4.63018
226.11	4.626
225.954	4.61309
225.612	4.60009
225.449	4.59591
223.236	4.5948
222.74	4.5812
222.562	4.57701
222.404	4.57282
222.076	4.5552
221.588	4.53802
220.795	4.50784
220.616	4.50775
220.461	4.50305
220.306	4.49887
220.151	4.49468
219.345	4.4686
217.439	4.42038
217.125	4.40276
216.825	4.39439
216.5	4.39421
216.351	4.38952
216.182	4.38532
215.572	4.36343
215.424	4.35925
215.254	4.35916
214.502	4.33309
214.355	4.3289
214.19	4.32419
213.737	4.30701
213.449	4.29402
212.998	4.27683
212.838	4.26802
212.691	4.26794
212.238	4.25896
211.789	4.24588
211.488	4.23288
211.343	4.2328
210.443	4.22407
210.14	4.21928
209.105	4.21458
208.075	4.21809
207.773	4.22253
207.629	4.22656
207.185	4.23502
207.043	4.23904
206.605	4.24289
206.168	4.24725
205.871	4.25118
205.731	4.2552
205.435	4.25964
205.004	4.26349
204.727	4.26743
203.461	4.25845
203.312	4.25375
203.178	4.25366
202.633	4.2405
202.077	4.22322
201.82	4.21023
201.676	4.20142
201.019	4.17124
200.748	4.15825
200.619	4.15355
200.475	4.14935
200.349	4.14055
200.229	4.12354
