Uv/Vis Spectrum: Naphthalene
Formula: C10H8
CAS: 91-20-3
Melting point: 80.2
Boiling point: 217.9
Instrument: Beckman DU
Origin: INSTITUTE OF ENERGY PROBLEMS OF CHEMICAL PHYSICS, RAS
Wavelength (nm)	Logarithm epsilon
284.843	2.37999
284.329	2.4227
284.071	2.44891
283.835	2.49191
283.714	2.51248
283.309	2.62367
283.107	2.67053
282.753	2.72194
282.576	2.7458
282.081	2.78919
281.768	2.82059
281.484	2.89922
281.282	2.95217
280.988	3.02452
280.909	3.05081
280.748	3.09903
280.585	3.14243
280.505	3.17307
280.361	3.22334
280.237	3.26268
280.13	3.29411
280.037	3.3197
279.957	3.34094
279.886	3.35898
279.823	3.37475
279.765	3.38901
279.71	3.40243
279.655	3.4156
279.599	3.42905
279.538	3.44322
279.47	3.45851
279.394	3.47525
279.326	3.48566
279.189	3.50575
279.049	3.52495
278.994	3.52517
278.877	3.52574
278.853	3.52435
278.8	3.52156
278.765	3.51382
278.702	3.49924
278.645	3.48573
278.592	3.47306
278.543	3.46095
278.495	3.44908
278.448	3.43711
278.398	3.42465
278.346	3.41125
278.288	3.39642
278.225	3.37959
278.154	3.36008
278.073	3.33706
277.981	3.30948
277.877	3.27596
277.758	3.23455
277.624	3.18236
277.601	3.17726
277.554	3.1666
277.522	3.1654
277.454	3.16274
277.365	3.16366
277.184	3.1657
277.113	3.16999
276.967	3.17864
276.848	3.19058
276.604	3.21369
276.476	3.2308
276.214	3.26311
276.15	3.27928
276.022	3.31007
275.935	3.32242
275.76	3.34612
275.586	3.3686
275.413	3.38999
275.239	3.4104
275.152	3.42027
275.042	3.42055
274.985	3.42077
274.925	3.41947
274.892	3.41875
274.772	3.37439
274.691	3.3425
274.636	3.32125
274.595	3.30717
274.554	3.29568
274.53	3.28927
274.368	3.27046
274.121	3.24563
273.578	3.1895
273.515	3.18447
273.39	3.174
273.258	3.17377
272.991	3.17311
272.921	3.17578
272.775	3.18127
272.682	3.18757
272.491	3.20009
272.384	3.21595
272.171	3.24601
271.956	3.27414
271.74	3.30055
271.466	3.32545
271.177	3.34948
270.992	3.3615
270.918	3.36165
270.763	3.36207
270.678	3.36036
270.6	3.35729
270.481	3.35651
270.299	3.35729
270.176	3.36609
269.926	3.38318
269.865	3.39067
269.743	3.40539
269.62	3.42904
269.402	3.46805
269.219	3.49843
269.067	3.52218
268.941	3.54076
268.839	3.55522
268.756	3.56641
268.69	3.57501
268.637	3.58163
268.592	3.5868
268.554	3.591
268.518	3.59469
268.48	3.59832
268.46	3.60025
268.427	3.60117
268.411	3.60166
268.306	3.60185
268.251	3.60199
268.162	3.60064
268.114	3.59991
267.96	3.58608
267.805	3.57179
267.648	3.55702
267.492	3.54172
267.414	3.53387
267.294	3.51799
267.173	3.50151
267.052	3.48438
266.93	3.46654
266.869	3.45734
266.642	3.43682
266.505	3.42752
266.406	3.4234
266.354	3.42127
266.022	3.42045
265.905	3.42077
265.65	3.44327
265.407	3.46531
265.194	3.484
265.028	3.49692
264.995	3.4979
264.921	3.49997
264.871	3.49966
264.766	3.49903
264.665	3.49116
264.463	3.47498
264.261	3.45818
264.058	3.4407
263.856	3.42249
263.653	3.40348
263.451	3.38361
263.35	3.37331
263.25	3.36989
263.197	3.36809
262.975	3.36723
262.864	3.36681
262.632	3.36838
262.517	3.36922
262.369	3.37317
262.296	3.37514
262.078	3.38746
261.95	3.39603
261.693	3.42886
261.605	3.43878
261.474	3.44299
261.406	3.44513
261.228	3.44411
261.146	3.44274
260.862	3.43325
260.761	3.4311
260.563	3.4311
260.461	3.4311
260.084	3.43737
259.923	3.4407
259.695	3.45257
259.578	3.45838
259.323	3.47941
259.065	3.49955
258.997	3.503
258.855	3.50983
258.789	3.5104
258.64	3.51065
258.579	3.50941
258.452	3.50684
258.384	3.50256
258.243	3.49374
257.971	3.46844
257.774	3.45176
257.669	3.44418
257.268	3.4229
257.022	3.41186
256.866	3.40787
256.79	3.40591
256.4	3.40552
256.208	3.40539
255.999	3.40863
255.898	3.41019
255.558	3.40939
255.458	3.40864
255.101	3.40041
254.946	3.39549
254.366	3.36375
254.068	3.34737
253.796	3.33363
253.673	3.32931
253.428	3.32067
253.339	3.31892
253.163	3.3154
252.987	3.3154
252.636	3.3154
252.432	3.31892
252.029	3.32587
251.88	3.32587
251.588	3.32587
251.209	3.321
250.851	3.3154
250.646	3.3145
250.071	3.31412
249.787	3.31603
249.518	3.3194
249.4	3.31932
249.144	3.31732
249.025	3.31396
248.793	3.3073
248.686	3.30271
248.477	3.29352
248.095	3.27065
247.777	3.25006
247.617	3.23757
247.352	3.21549
247.078	3.19122
246.699	3.15584
246.44	3.13031
245.997	3.08815
245.693	3.05795
245.337	3.02222
