Uv/Vis Spectrum: 2-Naphthalenamine
Formula: C10H9N
CAS: 91-59-8
Melting point: 113
Boiling point: 366
Instrument: n.i.g.
Origin: INSTITUTE OF ENERGY PROBLEMS OF CHEMICAL PHYSICS, RAS
Wavelength (nm)	Logarithm epsilon
220.554	4.35372
220.899	4.35881
221.305	4.36746
222.121	4.38656
222.121	4.38656
222.292	4.39607
222.565	4.40683
222.997	4.41426
222.997	4.41426
223.193	4.42307
223.409	4.43158
223.702	4.44318
224.132	4.46085
224.756	4.48691
224.756	4.48691
225.073	4.4958
225.506	4.51082
225.824	4.51924
225.824	4.51924
226.532	4.5442
227.081	4.56227
227.493	4.57511
227.792	4.58404
228	4.59015
228.139	4.5944
228.232	4.59769
228.302	4.60089
228.302	4.60089
228.603	4.60787
229.102	4.62201
229.601	4.63571
229.902	4.64216
229.902	4.64216
230.394	4.6558
230.816	4.66701
231.177	4.67624
231.489	4.68391
231.761	4.69037
232.005	4.69596
232.229	4.701
232.446	4.70577
232.665	4.71056
232.896	4.71563
233.15	4.72124
233.438	4.72764
233.438	4.72764
234.232	4.73482
235.084	4.74075
236.194	4.74708
236.194	4.74708
236.538	4.74707
236.882	4.74706
237.226	4.74705
237.226	4.74705
238.174	4.74078
238.771	4.73314
239.154	4.72485
239.463	4.7167
239.463	4.7167
239.606	4.71066
239.749	4.70454
239.892	4.69833
240.036	4.69202
240.179	4.68562
240.322	4.67912
240.466	4.67252
240.609	4.66582
240.753	4.65901
240.897	4.65209
241.041	4.64505
241.185	4.6379
241.33	4.63063
241.474	4.62323
241.619	4.6157
241.764	4.60803
241.909	4.60023
242.054	4.59228
242.2	4.58418
242.345	4.57593
242.491	4.56751
242.637	4.55893
242.784	4.55018
242.93	4.54124
243.077	4.53211
243.225	4.52279
243.372	4.51326
243.52	4.50352
243.668	4.49355
243.816	4.48335
243.965	4.47291
244.114	4.4622
244.263	4.45123
244.413	4.43997
244.563	4.42841
244.714	4.41654
244.864	4.40433
245.016	4.39177
245.167	4.37884
245.167	4.37884
245.207	4.36962
245.321	4.354
245.488	4.33366
245.686	4.3105
245.893	4.28678
246.086	4.2653
246.245	4.24942
246.348	4.24277
246.348	4.24277
246.505	4.22284
246.663	4.202
246.825	4.18016
246.992	4.15719
247.167	4.13296
247.351	4.10729
247.545	4.08
247.753	4.05083
247.975	4.01949
248.213	3.98561
248.47	3.94873
248.746	3.90826
248.746	3.90826
248.909	3.90177
249.213	3.87839
249.918	3.81182
249.918	3.81182
250.192	3.80093
252.462	4.24645
253.408	4.22505
254.151	4.20971
255.328	4.18727
255.328	4.18727
257.034	4.17873
259.013	4.17622
261.101	4.16709
261.101	4.16709
261.577	4.16704
262.056	4.16699
262.543	4.16693
262.543	4.16693
263.611	4.18311
264.582	4.20135
265.459	4.22063
266.243	4.24007
266.936	4.25893
267.54	4.27659
268.056	4.29251
268.056	4.29251
268.309	4.29568
268.569	4.29875
268.833	4.30175
268.833	4.30175
269.905	4.29582
270.759	4.28193
271.682	4.26581
272.963	4.25394
272.963	4.25394
273.161	4.2553
273.363	4.25666
273.572	4.25801
273.572	4.25801
274.415	4.27556
275.155	4.29293
275.852	4.30983
276.569	4.32602
277.365	4.34131
277.365	4.34131
277.95	4.35211
278.581	4.36745
279.358	4.37968
280.379	4.38192
280.379	4.38192
280.595	4.35625
280.783	4.33371
280.946	4.31411
281.091	4.29714
281.221	4.28232
281.341	4.26904
281.455	4.2566
281.57	4.24418
281.688	4.23086
281.816	4.21562
281.957	4.19724
281.957	4.19724
282.163	4.19088
282.399	4.17904
282.867	4.15038
282.867	4.15038
283.867	4.13156
284.928	4.12678
286.011	4.14624
286.011	4.14624
286.687	4.14583
287.371	4.14531
288.058	4.14473
288.058	4.14473
289.123	4.16899
289.839	4.19604
290.556	4.22027
290.556	4.22027
290.753	4.22025
290.954	4.22023
291.162	4.22021
291.162	4.22021
291.518	4.20212
291.705	4.186
291.882	4.15731
291.882	4.15731
292.003	4.14806
292.211	4.1245
292.478	4.08934
292.775	4.04539
293.071	3.99648
293.338	3.94858
293.547	3.91067
293.668	3.89421
293.668	3.89421
293.882	3.83948
294.104	3.79084
294.388	3.72441
294.789	3.59565
294.789	3.59565
295.105	3.57137
295.493	3.52987
296.133	3.45994
296.133	3.45994
297.276	3.40898
298.264	3.36653
302.55	3.33578
306.331	3.35995
306.331	3.35995
307.556	3.40847
309.428	3.4523
310.684	3.47721
310.684	3.47721
312.072	3.51559
313.462	3.55183
314.853	3.58604
316.245	3.61832
317.639	3.64879
319.034	3.67753
320.431	3.70463
321.828	3.73018
323.226	3.75425
324.625	3.77692
326.024	3.79823
327.425	3.81825
328.826	3.83703
330.227	3.8546
330.227	3.8546
331.464	3.87612
332.932	3.88804
334.551	3.89277
336.241	3.89219
337.924	3.88797
339.519	3.88168
340.948	3.87496
340.948	3.87496
341.193	3.87106
342.076	3.86826
344.353	3.86417
344.353	3.86417
345.013	3.85186
346.123	3.83439
347.404	3.80984
347.404	3.80984
348.944	3.78435
350.654	3.7333
352.048	3.68018
352.048	3.68018
354.16	3.54829
355.624	3.42328
356.609	3.3104
357.283	3.21
357.817	3.11129
358.38	2.9831
