Uv/Vis Spectrum: Naphthalene, 2-methyl-
Formula: C11H10
CAS: 91-57-6
Melting point: 34.4
Boiling point: 241.1
Instrument: Beckman DU
Origin: INSTITUTE OF ENERGY PROBLEMS OF CHEMICAL PHYSICS, RAS
Wavelength (nm)	Logarithm epsilon
300.58	2.27126
300.604	2.27005
300.622	2.26916
300.637	2.26842
300.637	2.26842
300.805	2.24452
301.135	2.20482
301.701	2.13541
301.701	2.13541
301.843	2.12263
301.981	2.11001
302.113	2.09771
302.113	2.09771
302.17	2.09557
302.227	2.09344
302.283	2.09131
302.283	2.09131
302.44	2.09131
302.596	2.09131
302.752	2.09131
302.752	2.09131
302.918	2.10909
303.078	2.12687
303.235	2.14465
303.235	2.14465
303.375	2.18911
303.514	2.23354
303.652	2.27793
303.788	2.32226
303.923	2.36652
304.058	2.41068
304.058	2.41068
304.223	2.49129
304.315	2.53112
304.413	2.56432
304.413	2.56432
304.49	2.61059
304.563	2.65674
304.634	2.70262
304.702	2.74808
304.767	2.79296
304.831	2.83712
304.892	2.8804
304.952	2.92267
305.01	2.96376
305.068	3.00353
305.124	3.04184
305.18	3.07852
305.236	3.11343
305.236	3.11343
305.317	3.12958
305.392	3.14541
305.463	3.16109
305.463	3.16109
305.605	3.16109
305.747	3.16109
305.889	3.16109
305.889	3.16109
305.938	3.15674
306.011	3.14291
306.173	3.10774
306.173	3.10774
306.258	3.07218
306.339	3.03661
306.414	2.87159
306.414	2.87159
306.414	2.91448
306.414	2.95769
306.414	3.00105
306.414	3.00105
306.445	2.83872
306.476	2.80191
306.508	2.76189
306.539	2.71943
306.571	2.67527
306.603	2.63015
306.635	2.58482
306.668	2.54003
306.701	2.49653
306.735	2.45506
306.769	2.41637
306.769	2.41637
306.887	2.36154
307.004	2.30692
307.121	2.25243
307.238	2.198
307.238	2.198
307.512	2.11493
307.678	2.06694
307.801	2.03576
307.948	2.00311
307.948	2.00311
308.032	1.99317
308.091	1.98008
308.175	1.9526
308.175	1.9526
308.373	1.92081
308.572	1.88932
308.771	1.858
308.771	1.858
308.927	1.83901
309.083	1.82033
309.24	1.80181
309.24	1.80181
309.306	1.7997
309.367	1.79775
309.424	1.79612
309.424	1.79612
309.604	1.79612
309.778	1.79612
309.949	1.79612
309.949	1.79612
310.038	1.80236
310.13	1.80624
310.304	1.81106
310.304	1.81106
310.439	1.81828
310.59	1.82897
310.886	1.85231
310.886	1.85231
311.127	1.88411
311.365	1.91559
311.596	1.94691
311.596	1.94691
311.695	1.95311
311.795	1.95898
311.894	1.9647
311.894	1.9647
311.979	1.96348
312.06	1.96259
312.135	1.96185
312.135	1.96185
312.192	1.95566
312.249	1.94979
312.306	1.94407
312.306	1.94407
312.484	1.91448
312.606	1.88996
312.774	1.84947
312.774	1.84947
312.919	1.79649
313.063	1.74919
313.206	1.70469
313.346	1.66012
313.484	1.61261
313.484	1.61261
313.64	1.57512
313.796	1.53795
313.952	1.50093
313.952	1.50093
314.119	1.47256
314.383	1.41858
314.776	1.34089
314.776	1.34089
315.074	1.29025
315.375	1.23483
315.657	1.18111
315.9	1.13559
316.082	1.10474
316.082	1.10474
316.163	1.09855
316.238	1.09268
316.309	1.08696
316.309	1.08696
316.433	1.08696
316.55	1.08696
316.664	1.08696
316.664	1.08696
316.749	1.0891
316.83	1.09123
316.905	1.09336
316.905	1.09336
316.947	1.10119
316.986	1.10901
317.019	1.11684
317.019	1.11684
317.12	1.16541
317.217	1.21384
317.313	1.26218
317.408	1.31045
317.502	1.35868
317.502	1.35868
317.589	1.41077
317.666	1.45654
317.734	1.49709
317.794	1.53349
317.849	1.56685
317.899	1.59825
317.947	1.62879
317.993	1.65956
318.041	1.69166
318.091	1.72618
318.146	1.7642
318.206	1.80682
318.274	1.85514
318.351	1.91025
318.438	1.97323
318.438	1.97323
318.471	2.02295
318.504	2.07357
318.536	2.12483
318.568	2.17649
318.6	2.22827
318.631	2.27992
318.661	2.33118
318.691	2.38179
318.721	2.4315
318.749	2.48004
318.777	2.52715
318.805	2.57258
318.831	2.61606
318.856	2.65735
318.881	2.69617
318.904	2.73228
318.927	2.7654
318.948	2.79529
318.968	2.82168
318.987	2.84431
319.004	2.86294
319.021	2.87728
319.021	2.87728
319.087	2.89219
319.148	2.90695
319.205	2.92138
319.205	2.92138
319.29	2.92563
319.371	2.92971
319.446	2.93348
319.446	2.93348
319.603	2.93226
319.759	2.93137
319.915	2.93063
319.915	2.93063
319.972	2.9241
320.108	2.89496
320.44	2.81825
320.44	2.81825
320.461	2.77095
320.482	2.72364
320.502	2.67634
320.521	2.62904
320.538	2.58174
320.554	2.53444
320.554	2.53444
320.596	2.49677
320.639	2.45925
320.681	2.42206
320.681	2.42206
320.697	2.37426
320.71	2.32646
320.72	2.27866
320.729	2.23086
320.738	2.18306
320.738	2.18306
320.823	2.17882
320.904	2.17474
320.979	2.17097
320.979	2.17097
320.995	2.12539
321.008	2.07994
321.018	2.03459
321.028	1.98931
321.036	1.94407
321.036	1.94407
321.085	1.88877
321.133	1.83414
321.181	1.78025
321.229	1.72714
321.277	1.67485
321.324	1.62344
321.37	1.57295
321.416	1.52342
321.462	1.47491
321.506	1.42747
321.55	1.38114
321.593	1.33596
321.634	1.292
321.675	1.24929
321.714	1.20788
321.752	1.16783
321.789	1.12917
321.824	1.09196
321.857	1.05625
321.889	1.02207
321.919	0.989485
321.947	0.95854
321.974	0.929276
321.998	0.901752
322.021	0.876004
322.041	0.852083
322.058	0.830043
322.074	0.809923
322.087	0.791775
322.087	0.791775
322.187	0.74441
322.285	0.697081
322.381	0.649812
322.476	0.602657
322.57	0.555626
322.57	0.555626
322.65	0.535737
322.725	0.516006
322.797	0.496584
322.797	0.496584
322.839	0.492355
322.882	0.488269
322.924	0.484499
322.924	0.484499
322.966	0.468849
323.005	0.453196
323.038	0.43756
323.038	0.43756
323.123	0.422623
323.204	0.40768
323.279	0.39275
323.279	0.39275
323.559	0.358106
323.832	0.323768
324.103	0.289611
324.103	0.289611
