Uv/Vis Spectrum: Isatin
Formula: C8H5NO2
CAS: 91-56-5
Melting point: 200-202
Instrument: Unicam SP 500
Origin: INSTITUTE OF ENERGY PROBLEMS OF CHEMICAL PHYSICS, RAS
Wavelength (nm)	Logarithm epsilon
203.84	4.11
204.5	4.114
205.16	4.117
205.82	4.12
206.49	4.124
207.15	4.127
207.81	4.131
208.47	4.134
209.14	4.137
209.8	4.141
210.46	4.144
211.78	4.134
213.11	4.127
214.43	4.103
215.76	4.029
217.08	3.931
218.41	3.884
219.73	3.856
222.38	3.853
223.7	3.853
225.03	3.853
226.35	3.853
227.68	3.911
229	3.965
230.32	4.009
231.65	4.053
232.97	4.11
234.3	4.171
235.62	4.219
236.95	4.313
238.27	4.347
239.59	4.371
240.92	4.384
242.24	4.381
243.57	4.334
244.89	4.313
246.22	4.283
247.54	4.256
248.86	4.087
250.19	3.917
251.51	3.748
252.84	3.579
258.14	3.098
262.11	3.041
264.09	3.037
266.08	3.041
268.07	3.054
270.05	3.071
272.04	3.092
275.35	3.176
276.68	3.22
278	3.278
279.32	3.301
280.65	3.322
281.97	3.339
283.3	3.362
284.62	3.393
285.95	3.43
287.27	3.457
288.59	3.474
289.92	3.488
291.24	3.501
292.57	3.518
293.89	3.521
295.22	3.525
296.54	3.525
297.86	3.521
299.19	3.515
300.51	3.501
301.84	3.477
303.16	3.437
305.81	3.366
307.14	3.318
308.46	3.268
309.78	3.244
311.11	3.2
312.43	3.149
313.76	3.092
315.08	3.041
316.41	3.01
323.03	2.733
324.35	2.645
325.68	2.56
328.32	2.452
329.65	2.384
330.97	2.32
332.3	2.283
333.62	2.232
336.27	2.164
337.59	2.127
338.92	2.08
340.24	2.012
341.57	1.948
342.89	1.907
344.22	1.9
345.54	2.059
346.86	2.137
348.19	2.195
349.51	2.256
350.84	2.29
358.78	2.401
360.11	2.425
361.43	2.445
362.76	2.466
364.08	2.479
365.41	2.496
366.73	2.513
368.05	2.53
369.38	2.547
370.7	2.56
372.03	2.584
373.35	2.601
374.68	2.611
376	2.625
377.32	2.635
378.65	2.648
379.97	2.658
381.3	2.672
382.62	2.686
383.95	2.696
385.27	2.706
386.59	2.713
387.92	2.726
389.24	2.736
390.57	2.743
391.89	2.757
393.22	2.76
394.54	2.77
395.86	2.777
397.19	2.787
398.51	2.79
399.84	2.794
401.16	2.797
402.49	2.807
403.81	2.811
405.14	2.821
406.46	2.824
407.78	2.824
409.11	2.828
410.43	2.831
411.76	2.838
413.08	2.838
414.41	2.841
415.73	2.845
417.05	2.845
418.38	2.845
419.7	2.845
421.03	2.845
422.35	2.841
423.68	2.841
425	2.841
426.32	2.841
427.65	2.834
428.97	2.831
430.3	2.831
431.62	2.828
432.95	2.824
434.27	2.824
435.59	2.814
436.92	2.814
438.24	2.811
439.57	2.807
440.89	2.804
442.22	2.797
443.54	2.794
444.86	2.787
446.19	2.78
447.51	2.777
448.84	2.767
450.16	2.76
451.49	2.757
452.81	2.743
454.14	2.736
455.46	2.726
456.78	2.719
458.11	2.706
459.43	2.692
460.76	2.686
462.08	2.672
463.41	2.658
464.73	2.642
466.05	2.635
467.38	2.621
468.7	2.608
470.03	2.591
471.35	2.581
472.68	2.57
474	2.56
475.32	2.55
476.65	2.533
477.97	2.52
479.3	2.506
480.62	2.493
481.95	2.476
483.27	2.459
484.59	2.445
485.92	2.432
487.24	2.415
488.57	2.401
489.89	2.381
491.22	2.354
492.54	2.337
493.86	2.34
