Uv/Vis Spectrum: Quinoline, 2-methyl-
Formula: C10H9N
CAS: 91-63-4
Melting point: - 1.5
Boiling point: 246.5
Instrument: unknown
Origin: INSTITUTE OF ENERGY PROBLEMS OF CHEMICAL PHYSICS, RAS
Wavelength (nm)	Logarithm epsilon
214.12	4.555
214.29	4.553
214.54	4.551
214.95	4.547
215.11	4.545
215.73	4.539
216.27	4.535
217.11	4.526
217.44	4.522
217.77	4.518
218.1	4.514
218.34	4.511
218.73	4.507
219.09	4.504
219.39	4.501
219.76	4.497
220.04	4.494
220.27	4.492
220.58	4.49
221.09	4.489
221.42	4.489
221.72	4.488
222.06	4.488
222.42	4.489
222.75	4.489
223.08	4.489
223.42	4.489
223.75	4.489
224.07	4.49
224.38	4.49
224.75	4.49
225.04	4.489
225.41	4.489
225.74	4.489
226.06	4.488
226.4	4.485
226.74	4.481
226.97	4.478
227.4	4.472
227.67	4.466
228.07	4.451
228.4	4.427
228.73	4.406
229.01	4.389
229.29	4.368
229.49	4.354
229.73	4.339
229.86	4.337
230.06	4.335
230.28	4.338
230.39	4.343
230.51	4.353
230.6	4.364
230.72	4.372
230.85	4.379
231.05	4.385
231.39	4.389
231.62	4.386
231.84	4.381
232.13	4.369
232.38	4.356
232.72	4.323
233.05	4.285
233.32	4.222
233.68	4.136
234.04	4.053
234.32	4.001
234.71	3.953
235.04	3.915
235.3	3.881
235.7	3.82
236.04	3.77
236.37	3.708
236.7	3.666
236.96	3.62
237.35	3.579
237.86	3.548
238.33	3.524
238.86	3.504
239.69	3.475
240.52	3.446
241.35	3.417
242.18	3.396
243.01	3.388
243.84	3.379
244.67	3.379
245.5	3.388
246.33	3.396
247.16	3.4
247.99	3.413
248.82	3.421
249.65	3.433
250.48	3.446
251.32	3.458
252.15	3.462
252.98	3.475
253.81	3.483
254.64	3.496
255.47	3.496
256.3	3.5
257.13	3.508
257.96	3.508
258.79	3.512
259.62	3.512
260.45	3.516
261.28	3.521
262.11	3.521
262.94	3.525
263.77	3.533
264.6	3.537
265.43	3.541
266.26	3.546
267.09	3.55
267.92	3.558
268.75	3.558
269.58	3.562
270.41	3.558
271.24	3.558
272.07	3.55
272.9	3.546
273.73	3.537
274.56	3.529
275.4	3.512
276.23	3.504
277.06	3.496
277.89	3.483
278.72	3.475
279.55	3.471
280.38	3.462
281.21	3.454
282.04	3.437
282.87	3.413
283.7	3.392
284.53	3.367
285.36	3.354
285.53	3.346
285.69	3.342
285.86	3.338
286.02	3.334
286.19	3.329
286.36	3.325
286.52	3.321
286.69	3.317
286.85	3.317
287.19	3.317
287.52	3.325
287.85	3.334
288.18	3.334
288.51	3.334
288.85	3.338
289.18	3.338
289.51	3.338
289.84	3.329
290.18	3.325
290.51	3.321
290.84	3.313
291.17	3.309
291.5	3.309
291.84	3.304
292.17	3.3
292.5	3.292
292.83	3.288
293.16	3.28
293.5	3.275
293.83	3.275
294.16	3.28
294.49	3.28
294.83	3.284
295.16	3.292
295.49	3.296
295.82	3.292
296.15	3.288
296.49	3.28
296.82	3.267
297.15	3.259
297.48	3.255
297.81	3.246
298.15	3.242
298.48	3.238
298.81	3.238
299.14	3.238
299.48	3.238
299.81	3.246
300.14	3.259
300.47	3.275
300.8	3.296
301.14	3.317
301.47	3.338
301.8	3.359
302.13	3.375
302.46	3.388
302.8	3.4
303.13	3.404
303.46	3.4
303.79	3.396
304.12	3.379
304.46	3.359
304.79	3.338
305.12	3.321
305.45	3.313
305.79	3.296
306.12	3.288
306.45	3.284
306.78	3.284
307.11	3.288
307.45	3.296
307.78	3.3
308.11	3.317
308.44	3.325
308.77	3.325
309.11	3.317
309.44	3.309
309.77	3.292
310.1	3.259
310.44	3.234
310.77	3.209
311.1	3.196
311.43	3.167
311.76	3.147
312.1	3.138
312.43	3.142
312.76	3.151
313.09	3.171
313.42	3.192
313.76	3.23
314.09	3.275
314.42	3.317
314.8	3.375
315.09	3.425
315.42	3.471
315.75	3.521
316.07	3.538
316.41	3.521
316.74	3.482
317.29	3.403
317.73	3.341
318.15	3.277
318.52	3.22
318.78	3.184
319.08	3.14
319.32	3.113
319.5	3.09
319.8	3.059
320.07	3.028
320.4	2.989
320.73	2.935
321.06	2.864
321.4	2.802
321.73	2.706
322.06	2.64
322.39	2.573
322.72	2.511
323.06	2.394
323.39	2.34
323.72	2.282
324.05	2.224
324.39	2.166
324.72	2.116
325.05	2.07
325.38	2.02
325.71	1.966
326.05	1.883
326.38	1.838
326.71	1.796
327.04	1.75
327.37	1.717
327.71	1.675
328.04	1.63
328.37	1.592
