Uv/Vis Spectrum: Coumarin
Formula: C9H6O2
CAS: 91-64-5
Melting point: 71
Boiling point: 301.7
Instrument: Beckman spectrophotometer
Origin: INSTITUTE OF ENERGY PROBLEMS OF CHEMICAL PHYSICS, RAS
Wavelength (nm)	Logarithm epsilon
220.36	4.019
220.47	4.006
220.8	3.989
221.27	3.969
221.81	3.944
222.36	3.919
222.9	3.898
223.44	3.87
223.99	3.848
224.53	3.831
225.08	3.816
225.62	3.789
226.16	3.774
226.71	3.759
227.25	3.742
227.8	3.727
228.3	3.712
228.88	3.692
229.43	3.672
229.97	3.656
230.52	3.643
230.92	3.63
231.56	3.611
232.15	3.598
232.69	3.584
233.23	3.57
233.78	3.559
234.32	3.546
234.87	3.537
235.41	3.528
235.95	3.518
236.5	3.509
237.04	3.501
237.59	3.491
238.13	3.476
238.67	3.46
239.22	3.438
239.76	3.408
240.21	3.396
240.85	3.39
241.39	3.393
241.94	3.396
242.56	3.401
243.13	3.407
243.57	3.415
244.19	3.425
244.66	3.435
245.2	3.449
245.74	3.468
246.29	3.494
246.83	3.511
247.38	3.53
247.92	3.552
248.46	3.574
249.01	3.59
249.55	3.612
250.1	3.625
250.64	3.648
251.18	3.667
251.73	3.685
252.27	3.699
252.81	3.716
253.36	3.738
253.9	3.752
254.45	3.767
254.99	3.787
255.53	3.798
256.08	3.816
256.62	3.836
257.17	3.849
257.71	3.864
258.25	3.876
258.8	3.887
259.34	3.897
259.89	3.901
260.43	3.909
260.97	3.919
261.52	3.924
262.06	3.93
262.61	3.935
263.15	3.941
263.69	3.945
264.24	3.95
264.78	3.952
265.32	3.956
265.87	3.968
266.41	3.983
266.96	3.994
267.5	4.006
268.04	4.017
268.59	4.026
269.13	4.035
269.68	4.039
270.22	4.042
270.76	4.044
271.31	4.048
271.85	4.049
272.4	4.045
272.94	4.029
273.48	3.998
274.03	3.977
274.57	3.961
275.05	3.95
275.66	3.945
276.2	3.943
276.75	3.942
277.29	3.942
277.83	3.941
278.38	3.933
278.92	3.926
279.47	3.924
280.01	3.925
280.46	3.933
280.76	3.947
280.97	3.963
281.12	3.975
281.17	3.981
281.27	3.986
281.46	3.989
281.64	3.991
281.78	3.993
281.99	3.995
282.19	3.996
282.37	3.997
282.55	3.996
282.85	3.991
282.95	3.985
283.16	3.963
283.41	3.937
283.82	3.89
284.36	3.831
284.9	3.768
285.45	3.702
285.99	3.637
286.54	3.596
286.9	3.567
287.62	3.532
288.17	3.518
288.71	3.506
289.26	3.496
289.64	3.49
290.34	3.486
290.89	3.486
291.43	3.489
291.98	3.494
292.41	3.499
293.01	3.506
293.61	3.516
294.15	3.525
294.69	3.534
295.24	3.546
295.78	3.555
296.33	3.561
296.87	3.57
297.41	3.58
297.96	3.59
298.5	3.598
299.05	3.608
299.59	3.617
300.13	3.623
300.68	3.63
301.22	3.637
301.77	3.646
302.31	3.653
302.85	3.662
303.4	3.669
303.94	3.674
304.49	3.679
305.03	3.685
305.57	3.69
306.12	3.693
306.66	3.696
307.2	3.699
307.75	3.702
308.29	3.704
308.84	3.707
309.38	3.709
309.92	3.71
310.47	3.712
311.01	3.712
311.56	3.713
312.1	3.713
312.64	3.715
313.19	3.715
313.73	3.713
314.28	3.713
314.82	3.712
315.36	3.712
315.91	3.71
316.45	3.71
316.99	3.707
317.54	3.704
318.08	3.701
318.63	3.696
319.17	3.693
319.71	3.688
320.26	3.684
320.8	3.679
321.35	3.672
321.89	3.664
322.43	3.652
322.98	3.643
323.47	3.633
324.07	3.619
324.61	3.608
325.15	3.596
325.7	3.584
326.24	3.563
326.78	3.55
327.33	3.534
327.87	3.523
328.42	3.511
328.96	3.501
329.5	3.489
330.05	3.476
330.59	3.465
331.11	3.456
331.6	3.442
332.22	3.423
332.77	3.405
333.28	3.387
333.86	3.367
334.34	3.347
334.94	3.321
335.4	3.294
336.03	3.257
336.46	3.233
336.98	3.204
337.38	3.18
337.75	3.161
338.03	3.15
338.22	3.139
338.46	3.124
338.76	3.106
339.48	3.064
340.2	3.015
340.93	2.975
341.65	2.923
342.38	2.863
343.1	2.805
343.83	2.754
344.55	2.695
345.28	2.645
