Uv/Vis Spectrum: 2-Naphthalenethiol
Formula: C10H8S
CAS: 91-60-1
Melting point: 81
Boiling point: 288
Instrument: n.i.g.
Origin: INSTITUTE OF ENERGY PROBLEMS OF CHEMICAL PHYSICS, RAS
Wavelength (nm)	Logarithm epsilon
224.204	2.32619
225.5	2.32093
225.998	2.32102
227.129	2.31883
228.209	2.30867
229.358	2.29519
229.358	2.29519
229.358	2.29311
229.358	2.29085
229.359	2.2885
229.453	2.28851
229.516	2.28853
229.584	2.28854
229.655	2.28855
230.736	2.27574
232.186	2.27865
233.458	2.28651
234.883	2.30123
234.883	2.30123
235.093	2.31281
235.352	2.31758
235.769	2.32264
236.905	2.33779
238.184	2.35847
239.38	2.37442
240.787	2.38568
242.97	2.38289
243.824	2.33917
244.844	2.31
246.234	2.28343
246.234	2.28343
246.758	2.26014
247.127	2.23385
247.432	2.20291
247.83	2.15691
248.299	2.11485
248.767	2.0728
249.236	2.03075
249.738	2.00288
249.994	1.97406
250.401	1.94352
250.784	1.91131
250.784	1.91131
251.256	1.89213
251.657	1.86917
251.933	1.8426
253.125	1.79988
253.377	1.78833
253.72	1.77626
254.114	1.76579
254.114	1.76579
254.834	1.7291
255.246	1.71039
255.702	1.6936
256.798	1.66583
256.914	1.66365
257.066	1.65561
257.383	1.63482
257.383	1.63482
258.145	1.61319
259.038	1.59412
260.012	1.57935
261.344	1.55516
262.187	1.54504
263.031	1.53484
263.874	1.52447
264.017	1.52252
264.479	1.5226
264.942	1.52268
265.404	1.52276
266.979	1.53955
268.042	1.55048
269.151	1.56788
270.031	1.58928
270.031	1.58928
270.651	1.5873
271.277	1.58514
271.906	1.5829
273.189	1.56697
273.699	1.56339
274.209	1.55964
274.72	1.5558
274.874	1.55386
275.642	1.55488
276.422	1.55782
277.245	1.5641
278.12	1.58078
279.297	1.59895
280.655	1.60692
281.877	1.5944
283.853	1.54236
284.677	1.517
285.511	1.48911
286.438	1.46404
287.224	1.44448
287.488	1.43846
287.732	1.43462
288.163	1.42968
288.317	1.42813
289.627	1.43749
291.014	1.4466
292.358	1.44179
293.252	1.41595
293.956	1.37805
294.669	1.33359
295.192	1.28988
295.84	1.2388
296.379	1.20488
296.859	1.16293
297.269	1.11883
297.595	1.07845
297.595	1.07845
297.655	1.07728
297.718	1.07611
297.786	1.07494
297.786	1.07494
297.835	1.06627
297.887	1.05751
297.944	1.04859
298.637	1.00932
298.752	1.00615
298.83	0.998508
298.938	0.979844
298.938	0.979844
299.497	0.949839
299.963	0.919031
300.388	0.883224
300.388	0.883224
300.471	0.882832
300.554	0.882348
300.637	0.881693
300.637	0.881693
300.685	0.87371
300.734	0.865548
300.783	0.857302
301.727	0.806275
302.348	0.764445
302.865	0.73339
303.415	0.710972
304.135	0.695087
305.162	0.683605
306.633	0.674402
306.633	0.674402
307.276	0.660315
307.921	0.646149
308.572	0.631809
308.572	0.631809
309.476	0.62268
309.821	0.618446
309.903	0.615487
310.057	0.613937
310.188	0.613958
310.318	0.613979
310.448	0.614
311.338	0.611001
312.305	0.61167
313.229	0.610415
314.244	0.606371
314.399	0.60482
315.137	0.608719
315.493	0.61133
315.773	0.614887
316.659	0.631576
317.22	0.642366
317.809	0.659384
318.527	0.672827
318.527	0.672827
318.792	0.689877
319.085	0.698179
319.565	0.709228
319.565	0.709228
319.906	0.727395
319.907	0.723053
319.907	0.718618
319.908	0.714011
320.58	0.707664
321.37	0.696173
321.931	0.665131
321.931	0.665131
322.221	0.655359
322.516	0.641573
323.029	0.617671
323.029	0.617671
323.451	0.610575
323.63	0.606424
323.72	0.601636
323.72	0.601636
324.211	0.592843
324.715	0.584569
325.206	0.57236
325.408	0.570415
325.455	0.571604
325.503	0.572802
325.55	0.573985
326.844	0.560815
327.201	0.557218
327.561	0.553434
327.925	0.549579
327.925	0.549579
328.701	0.530136
329.426	0.516892
330.445	0.510625
330.647	0.509081
331.705	0.538435
332.531	0.565399
333.163	0.596311
333.64	0.63754
334.227	0.673859
334.486	0.684423
334.746	0.694798
335.005	0.705094
335.005	0.705094
335.823	0.709609
337.618	0.509404
338.409	0.382395
339.131	0.234467
