Uv/Vis Spectrum: 3,3'-Dichlorobenzidine
Formula: C12H10Cl2N2
CAS: 91-94-1
Instrument: n.i.g.
Origin: INSTITUTE OF ENERGY PROBLEMS OF CHEMICAL PHYSICS, RAS
Wavelength (nm)	Logarithm epsilon
218.213	4.49672
218.412	4.49071
218.61	4.4846
218.704	4.49552
218.807	4.47841
218.856	4.4882
219.002	4.47213
219.008	4.48076
219.197	4.46576
219.39	4.45929
219.418	4.46518
219.556	4.46093
219.583	4.45272
219.694	4.4566
219.775	4.44604
219.833	4.4522
219.966	4.43927
220.033	4.45011
220.101	4.44606
220.158	4.43238
220.172	4.44197
220.252	4.43785
220.349	4.42539
220.438	4.43447
220.441	4.4337
220.444	4.43293
220.447	4.43215
220.54	4.41827
220.731	4.41104
220.923	4.40369
221.115	4.39621
221.281	4.40259
221.284	4.40176
221.286	4.40092
221.289	4.40009
221.308	4.3886
221.476	4.39641
221.48	4.3952
221.484	4.39396
221.488	4.39266
221.501	4.38085
221.695	4.37296
221.696	4.38757
221.761	4.38376
221.83	4.37991
221.89	4.36493
221.907	4.37603
222.087	4.35674
222.098	4.37073
222.105	4.36856
222.111	4.36638
222.118	4.36418
222.285	4.3484
222.484	4.33989
222.685	4.33122
222.738	4.34359
222.888	4.32237
222.945	4.33313
223.093	4.31334
223.153	4.32239
223.3	4.30411
223.361	4.31135
223.509	4.29469
223.569	4.30002
223.72	4.28506
223.777	4.28837
223.935	4.27521
224.151	4.26514
224.371	4.25483
224.413	4.25699
224.594	4.24427
224.681	4.24134
224.82	4.23345
224.958	4.22507
225.049	4.22236
225.238	4.20808
225.282	4.21098
225.518	4.19929
225.758	4.18729
226.002	4.17495
226.25	4.16225
226.502	4.14917
226.759	4.13569
227.02	4.12179
227.286	4.10743
227.557	4.09259
227.833	4.07722
228.248	4.04509
228.911	4.00639
229.423	3.97648
229.635	3.95895
231.314	3.90915
232.386	3.87585
233.119	3.85288
233.748	3.82866
235.992	3.75197
237.424	3.71088
238.475	3.68184
240.043	3.64017
242.05	3.60857
242.524	3.61415
243.005	3.61967
243.49	3.62512
243.49	3.62512
243.737	3.61941
243.985	3.61331
244.052	3.61776
244.16	3.62071
244.232	3.60695
244.276	3.6235
244.397	3.62595
244.397	3.62595
244.401	3.61859
244.405	3.61078
244.409	3.60265
244.597	3.61098
245.489	3.61693
246.388	3.6228
247.292	3.62859
249.825	3.65542
251.033	3.67627
252.29	3.7031
253.426	3.73319
254.271	3.7643
256.046	3.81362
256.743	3.84109
257.447	3.86675
258.155	3.89089
259.629	3.94783
260.407	3.97311
261.192	3.997
261.981	4.01964
263.72	4.07199
264.24	4.08559
264.764	4.09866
265.297	4.1113
266.575	4.14855
267.221	4.16501
267.894	4.17049
267.952	4.18143
267.983	4.17025
268.075	4.16992
268.175	4.16955
268.753	4.1951
270.323	4.22788
271.614	4.25602
272.198	4.26721
272.576	4.27217
273.771	4.29654
274.152	4.30402
274.902	4.31562
276.211	4.33605
277.424	4.35107
278.242	4.36005
279.05	4.36842
279.928	4.37608
280.957	4.38293
282.368	4.39466
283.642	4.39704
285.026	4.40106
286.686	4.40275
288.33	4.40169
289.58	4.39758
290.676	4.39322
292.556	4.38478
294.402	4.3747
295.47	4.36812
296.542	4.36141
297.622	4.35453
299.562	4.34155
300.493	4.33345
301.423	4.32516
302.354	4.31664
