Uv/Vis Spectrum: m-Terphenyl
Formula: C18H14
CAS: 92-06-8
Melting point: 86-88
Instrument: Unicam SP 700
Origin: INSTITUTE OF ENERGY PROBLEMS OF CHEMICAL PHYSICS, RAS
Wavelength (nm)	Logarithm epsilon
197.72	4.532
197.81	4.532
197.89	4.534
197.98	4.534
198.06	4.534
198.15	4.534
198.23	4.536
198.32	4.536
198.4	4.536
198.49	4.538
198.57	4.538
198.66	4.538
198.74	4.538
198.83	4.54
199.17	4.545
199.52	4.553
199.86	4.56
200.21	4.564
200.56	4.572
200.91	4.577
201.26	4.583
201.61	4.587
201.97	4.596
202.32	4.598
202.68	4.607
203.03	4.609
203.39	4.615
203.75	4.617
204.11	4.619
204.47	4.622
204.84	4.626
205.2	4.628
205.57	4.628
205.93	4.626
206.3	4.626
206.67	4.622
207.04	4.619
207.42	4.617
207.79	4.611
208.16	4.607
208.54	4.598
208.92	4.594
209.3	4.583
209.68	4.572
210.06	4.562
210.44	4.551
210.83	4.538
211.22	4.525
211.6	4.508
211.99	4.493
212.38	4.474
212.78	4.453
213.17	4.431
213.56	4.412
213.96	4.395
214.32	4.379
214.75	4.362
215.16	4.345
215.56	4.331
215.94	4.318
216.32	4.303
216.78	4.282
217.18	4.262
217.59	4.245
218.01	4.224
218.42	4.207
218.83	4.192
219.25	4.172
219.67	4.16
220.09	4.143
220.51	4.13
220.93	4.119
221.35	4.113
221.78	4.11
222.21	4.11
222.7	4.113
223.11	4.116
223.5	4.119
223.97	4.124
224.4	4.129
224.83	4.135
225.29	4.142
225.72	4.148
226.17	4.155
226.58	4.16
226.99	4.167
227.47	4.175
227.92	4.185
228.37	4.196
228.82	4.207
229.28	4.22
229.74	4.235
230.19	4.247
230.66	4.258
231.12	4.271
231.58	4.288
232.05	4.297
232.52	4.311
232.99	4.322
233.46	4.339
233.93	4.352
234.41	4.365
234.88	4.382
235.36	4.393
235.85	4.406
236.33	4.418
236.81	4.429
237.3	4.442
237.79	4.453
238.28	4.463
238.78	4.474
239.27	4.483
239.77	4.493
240.27	4.498
240.77	4.506
241.28	4.515
241.78	4.523
242.29	4.527
242.8	4.536
243.31	4.54
243.83	4.547
244.34	4.551
244.86	4.555
245.38	4.56
245.91	4.56
246.43	4.562
246.96	4.568
247.49	4.568
248.02	4.568
248.56	4.57
249.1	4.568
249.63	4.568
250.18	4.568
250.72	4.568
251.27	4.564
251.82	4.56
252.37	4.555
252.92	4.549
253.48	4.545
254.04	4.536
254.6	4.527
255.16	4.523
255.73	4.512
256.29	4.502
256.87	4.495
257.44	4.487
258.02	4.474
258.59	4.463
259.18	4.45
259.76	4.438
260.35	4.425
260.94	4.408
261.53	4.395
262.12	4.378
262.72	4.361
263.32	4.339
263.92	4.324
264.53	4.307
265.14	4.288
265.79	4.268
266.37	4.253
267.06	4.232
267.68	4.214
268.39	4.195
269	4.177
269.56	4.16
270.21	4.14
270.79	4.122
271.39	4.102
272.02	4.083
272.76	4.06
273.4	4.031
273.96	4.012
274.61	3.984
275.27	3.957
275.92	3.924
276.59	3.895
277.25	3.862
277.92	3.824
278.59	3.781
279.27	3.743
279.94	3.7
280.63	3.664
281.31	3.623
282	3.576
282.69	3.533
283.38	3.488
284.08	3.439
284.79	3.388
285.49	3.345
286.2	3.285
286.91	3.232
287.63	3.187
288.35	3.144
289.07	3.11
289.8	3.071
290.53	3.031
291.26	2.994
292	2.969
292.74	2.937
293.49	2.907
294.23	2.875
294.99	2.836
295.74	2.804
296.5	2.774
297.27	2.742
298.04	2.71
298.81	2.674
299.59	2.639
300.37	2.605
301.15	2.565
301.94	2.524
302.73	2.483
303.53	2.44
304.33	2.4
305.14	2.34
305.95	2.297
