Uv/Vis Spectrum: Ethene, 1,1-dimethoxy-
Formula: C4H8O2
CAS: 922-69-0
Instrument: unknown
Origin: INSTITUTE OF ENERGY PROBLEMS OF CHEMICAL PHYSICS, RAS
Wavelength (nm)	Logarithm epsilon
210.24	3.263
210.47	3.268
210.71	3.272
210.94	3.277
211.18	3.282
211.41	3.286
211.65	3.291
211.88	3.295
212.12	3.3
214	3.328
214.94	3.332
215.88	3.332
216.82	3.323
217.76	3.309
218.71	3.268
219.65	3.24
220.59	3.212
222.47	3.12
224.35	3.028
225.29	2.973
227.18	2.853
229.06	2.743
230	2.655
230.94	2.614
231.88	2.554
233.76	2.425
235.65	2.291
237.53	2.116
238.47	2.011
240.35	1.831
241.29	1.72
242.24	1.656
243.18	1.55
244.12	1.416
245.06	1.334
246	1.2
246.94	1.089
247.88	0.997
248.82	0.855
250.71	0.721
252.59	0.564
253.53	0.528
254.47	0.454
255.41	0.399
256.35	0.371
258.24	0.27
259.18	0.237
260.12	0.214
262	0.168
262.94	0.145
263.88	0.127
264.82	0.109
267.65	0.062
268.59	0.044
269.53	0.035
270.47	0.03
