Uv/Vis Spectrum: Morpholine, 4-phenyl-
Formula: C10H13NO
CAS: 92-53-5
Melting point: 58
Boiling point: 268
Instrument: unknown
Origin: INSTITUTE OF ENERGY PROBLEMS OF CHEMICAL PHYSICS, RAS
Wavelength (nm)	Logarithm epsilon
229.61	1.495
229.69	1.502
229.78	1.502
229.86	1.509
229.95	1.509
230.03	1.509
230.12	1.516
230.2	1.516
230.28	1.522
230.37	1.522
230.45	1.522
230.54	1.529
230.62	1.529
230.71	1.529
230.79	1.535
230.88	1.535
231.13	1.542
231.38	1.554
231.63	1.565
231.89	1.578
232.13	1.593
232.41	1.608
232.67	1.622
232.91	1.635
233.16	1.648
233.41	1.662
233.65	1.678
233.93	1.693
234.16	1.707
234.43	1.722
234.68	1.736
234.94	1.748
235.19	1.76
235.43	1.772
235.71	1.786
235.95	1.796
236.21	1.81
236.43	1.82
236.71	1.832
236.97	1.843
237.23	1.854
237.48	1.864
237.73	1.876
237.98	1.885
238.24	1.896
238.51	1.908
238.75	1.92
239	1.928
239.25	1.936
239.51	1.946
239.76	1.956
240.02	1.965
240.31	1.976
240.52	1.984
240.78	1.995
241.03	2.006
241.28	2.017
241.54	2.025
241.79	2.035
242.05	2.043
242.3	2.053
242.55	2.059
242.81	2.065
243.06	2.072
243.32	2.078
243.57	2.083
243.82	2.088
244.1	2.094
244.33	2.099
244.6	2.105
244.84	2.111
245.08	2.12
245.35	2.133
245.6	2.145
245.85	2.161
246.11	2.179
246.35	2.195
246.61	2.212
246.86	2.228
247.12	2.241
247.37	2.246
247.63	2.247
247.88	2.244
248.14	2.241
248.39	2.233
248.65	2.227
248.9	2.22
249.15	2.215
249.41	2.213
249.66	2.212
249.92	2.213
250.17	2.217
250.42	2.227
250.68	2.237
250.93	2.248
251.18	2.26
251.44	2.273
251.69	2.285
251.95	2.296
252.2	2.307
252.45	2.318
252.71	2.327
252.97	2.337
253.22	2.345
253.47	2.347
253.72	2.345
253.98	2.333
254.23	2.316
254.48	2.294
254.74	2.277
254.98	2.262
255.25	2.249
255.5	2.242
255.75	2.238
256.01	2.238
256.26	2.241
256.52	2.248
256.77	2.257
257.02	2.271
257.28	2.287
257.53	2.288
257.78	2.282
258.04	2.271
258.29	2.265
258.55	2.26
258.8	2.258
259.05	2.253
259.31	2.246
259.56	2.234
259.82	2.221
260.07	2.196
260.32	2.162
260.58	2.134
260.83	2.108
261.08	2.066
261.34	2.037
261.59	2.021
261.85	2.015
262.1	2.012
262.35	2.015
262.61	2.029
262.86	2.059
263.12	2.088
263.37	2.113
263.62	2.114
263.88	2.103
264.12	2.069
264.38	2.01
264.63	1.961
264.89	1.904
265.13	1.844
265.4	1.782
265.65	1.716
265.91	1.647
266.16	1.572
266.39	1.51
266.69	1.44
266.92	1.393
267.18	1.346
267.43	1.305
267.68	1.256
267.94	1.208
268.16	1.168
268.45	1.118
268.69	1.074
268.95	1.025
269.23	0.969
269.46	0.907
269.68	0.858
269.97	0.782
270.22	0.703
270.48	0.606
270.73	0.481
