Uv/Vis Spectrum: N-[2-(aminosulfonyl)phenyl]-2-butenamide
Formula: C10H12N2O3S
CAS: 92629-14-6
Melting point: 182-183
Instrument: Specord UV-Vis
Origin: INSTITUTE OF ENERGY PROBLEMS OF CHEMICAL PHYSICS, RAS
Wavelength (nm)	Logarithm epsilon
203.51	4.311
205.01	4.321
206.51	4.334
208.01	4.35
209.51	4.366
211.01	4.382
212.51	4.397
214.01	4.408
215.51	4.413
217.01	4.411
218.51	4.399
220.01	4.377
221.51	4.344
223.01	4.302
224.438	4.259
225.938	4.214
227.438	4.169
228.938	4.124
230.438	4.079
231.938	4.034
233.438	3.992
234.938	3.953
236.438	3.92
237.938	3.893
239.438	3.875
240.938	3.866
242.438	3.866
243.938	3.876
245.438	3.894
246.938	3.916
247.019	3.92
248.519	3.945
250.019	3.972
251.519	3.999
253.019	4.023
254.519	4.044
256.019	4.061
257.519	4.074
259.019	4.083
260.519	4.088
262.019	4.09
263.519	4.09
265.019	4.087
266.519	4.082
268.019	4.076
269.519	4.068
271.019	4.059
272.519	4.049
274.019	4.039
275.474	4.029
276.974	4.018
278.474	4.008
279.974	3.996
281.474	3.984
282.974	3.971
284.474	3.959
285.974	3.953
287.474	3.952
288.974	3.957
290.474	3.967
290.527	3.967
292.027	3.976
293.527	3.979
295.027	3.975
296.527	3.963
298.027	3.944
299.527	3.917
301.027	3.886
302.527	3.85
304.027	3.81
305.527	3.769
307.027	3.728
308.518	3.687
310.018	3.645
311.518	3.61
313.018	3.577
314.518	3.542
316.018	3.503
317.518	3.459
319.018	3.411
