Uv/Vis Spectrum: [1,1'-Biphenyl]-4-amine
Formula: C12H11N
CAS: 92-67-1
Melting point: 53.5
Boiling point: 302
Instrument: n.i.g.
Origin: INSTITUTE OF ENERGY PROBLEMS OF CHEMICAL PHYSICS, RAS
Wavelength (nm)	Logarithm epsilon
350.204	1.0852
349.37	1.13706
348.229	1.22895
348.229	1.22895
347.674	1.2576
346.892	1.31528
346.113	1.37296
345.565	1.40161
345.565	1.40161
344.515	1.48039
343.627	1.54658
342.885	1.60153
342.272	1.64656
341.773	1.68302
341.374	1.71223
341.06	1.73554
340.817	1.75426
340.63	1.76975
340.486	1.78334
340.372	1.79635
340.272	1.81012
340.272	1.81012
338.923	1.9064
337.717	1.99306
336.645	2.07062
335.696	2.13959
334.861	2.20047
334.132	2.25378
333.5	2.30003
332.957	2.33973
332.494	2.37339
332.104	2.40152
331.779	2.42464
331.513	2.44324
331.297	2.45785
331.124	2.46897
330.987	2.47712
330.879	2.4828
330.792	2.48653
330.721	2.48882
330.677	2.51488
330.656	2.49017
330.593	2.4911
330.593	2.4911
330.58	2.53476
329.83	2.55222
329.83	2.55222
329.635	2.56972
329.453	2.58589
329.277	2.60122
329.099	2.61622
328.912	2.63139
328.708	2.64723
328.48	2.66424
328.22	2.68291
327.922	2.70376
327.579	2.72728
327.182	2.75396
326.726	2.78432
326.204	2.81885
325.608	2.85804
324.932	2.90241
324.171	2.95246
323.318	3.00867
322.367	3.07156
321.314	3.14162
320.152	3.21935
320.152	3.21935
319.889	3.21939
319.625	3.21942
319.362	3.21945
319.362	3.21945
318.988	3.2195
318.982	3.21038
318.976	3.20114
318.971	3.19166
318.639	3.2517
317.908	3.28376
317.168	3.31564
316.418	3.34735
315.661	3.37888
314.893	3.41026
314.116	3.44148
313.329	3.47257
312.532	3.50351
311.724	3.53433
310.906	3.56503
310.077	3.59562
309.237	3.62611
308.386	3.6565
307.523	3.6868
306.649	3.71703
305.763	3.74718
304.865	3.77727
303.956	3.8073
303.034	3.83729
302.099	3.86724
301.152	3.89715
300.193	3.92705
300.193	3.92705
298.952	3.9587
297.717	3.98827
296.479	4.01584
295.227	4.04149
293.952	4.06531
292.644	4.08739
291.293	4.10781
289.892	4.12665
288.431	4.14401
286.904	4.15996
285.301	4.1746
283.617	4.188
281.846	4.20025
279.981	4.21144
278.017	4.22166
278.017	4.22166
275.756	4.22008
273.879	4.2158
272.202	4.20838
270.55	4.19734
268.758	4.18223
266.67	4.16258
266.67	4.16258
265.182	4.14078
263.718	4.11877
262.274	4.09633
260.849	4.07324
259.438	4.04929
258.041	4.02426
256.655	3.99795
256.655	3.99795
254.992	3.95354
253.809	3.92193
252.911	3.89844
252.113	3.87841
251.233	3.85717
250.096	3.83008
250.096	3.83008
250.022	3.82577
249.935	3.8213
249.814	3.8159
249.637	3.80882
249.38	3.79929
249.023	3.78656
248.545	3.76986
247.924	3.74844
247.141	3.72153
246.177	3.68837
245.016	3.6482
243.641	3.60026
242.039	3.54379
240.198	3.47803
238.111	3.40223
238.111	3.40223
236.646	3.37527
235.437	3.3651
234.315	3.36994
233.115	3.38804
231.681	3.41763
231.681	3.41763
230.738	3.44455
229.8	3.47148
228.869	3.4984
227.944	3.52533
227.025	3.55226
226.113	3.57918
225.208	3.60611
224.311	3.63304
224.311	3.63304
223.553	3.66305
222.8	3.69306
222.052	3.72305
221.309	3.75301
220.571	3.78293
219.838	3.81281
219.11	3.84263
