Uv/Vis Spectrum: 4-methyl-3-(1-propenyl)-4H-1,2,4-benzothiadiazine 1,1-dioxide
Formula: C11H12N2O2S
CAS: 92629-00-0
Melting point: 236-237
Instrument: Specord UV-Vis
Origin: INSTITUTE OF ENERGY PROBLEMS OF CHEMICAL PHYSICS, RAS
Wavelength (nm)	Logarithm epsilon
203.546	4.332
204.046	4.333
204.546	4.335
205.046	4.337
205.546	4.34
206.046	4.342
206.546	4.344
207.046	4.345
207.546	4.347
208.046	4.348
208.546	4.348
209.046	4.348
209.546	4.348
210.046	4.346
210.546	4.345
211.046	4.343
211.546	4.341
212.046	4.338
212.546	4.334
213.046	4.331
213.546	4.327
214.046	4.322
214.546	4.318
215.046	4.312
215.546	4.307
216.813	4.294
217.813	4.281
218.813	4.269
219.813	4.259
220.767	4.25
221.858	4.242
222.768	4.235
223.677	4.228
224.768	4.221
225.768	4.214
226.86	4.208
227.678	4.205
228.587	4.201
229.497	4.197
230.286	4.197
231.286	4.196
232.286	4.198
233.286	4.201
234.286	4.206
235.286	4.212
236.286	4.219
237.286	4.226
238.286	4.232
239.286	4.238
240.286	4.243
241.286	4.247
242.286	4.25
242.423	4.25
243.423	4.25
244.423	4.25
245.423	4.25
246.423	4.248
247.423	4.244
248.423	4.239
249.423	4.232
250.423	4.222
251.423	4.211
252.423	4.199
253.423	4.184
254.423	4.169
255.423	4.153
256.423	4.135
257.423	4.117
258.423	4.099
259.423	4.08
260.423	4.061
261.423	4.042
262.333	4.025
263.195	4.008
264.217	3.982
265.136	3.959
265.881	3.941
267.699	3.904
269.739	3.87
271.222	3.843
272.864	3.818
273.864	3.807
274.864	3.8
275.864	3.797
276.864	3.797
277.864	3.8
278.864	3.804
279.864	3.809
280.864	3.815
281.864	3.821
282.864	3.826
283.864	3.831
284.864	3.834
285.864	3.836
286.864	3.837
287.864	3.835
288.864	3.832
289.864	3.827
290.864	3.82
291.864	3.811
292.864	3.8
294.527	3.783
295.652	3.764
297.152	3.744
298.652	3.724
300.152	3.704
301.652	3.684
303.152	3.664
304.652	3.644
306.152	3.624
307.652	3.604
309.152	3.584
310.439	3.562
311.986	3.539
312.986	3.522
313.986	3.506
314.986	3.489
315.986	3.472
316.986	3.455
317.986	3.437
318.986	3.418
319.986	3.399
