Uv/Vis Spectrum: 2,5-Diphenyloxazolex
Formula: C15H11NO
CAS: 92-71-7
Melting point: 74
Boiling point: 360
Instrument: n.i.g.
Origin: INSTITUTE OF ENERGY PROBLEMS OF CHEMICAL PHYSICS, RAS
Wavelength (nm)	Logarithm epsilon
256.543	3.89594
257.083	3.89883
257.656	3.90138
258.494	3.90385
259.068	3.90673
259.607	3.90928
260.719	3.91438
261.293	3.91726
261.865	3.91981
262.404	3.92236
262.978	3.92524
263.55	3.92778
263.824	3.93041
264.671	3.93592
265.21	3.93847
265.517	3.94143
266.057	3.94398
266.363	3.9466
267.21	3.95211
267.483	3.95474
268.023	3.95729
268.33	3.96025
269.176	3.96542
269.45	3.96838
269.724	3.97101
270.296	3.97355
270.569	3.97618
271.143	3.97906
271.682	3.98162
272.27	3.9899
272.543	3.99253
273.39	3.99804
273.705	4.0037
273.978	4.00632
274.252	4.00895
274.525	4.01158
274.84	4.01724
275.113	4.01986
275.387	4.02283
275.694	4.02545
275.967	4.02807
276.241	4.03104
277.103	4.04195
277.409	4.04457
278.238	4.05549
279.1	4.06674
279.406	4.06936
279.688	4.07503
279.961	4.07766
280.275	4.08298
280.557	4.08864
280.83	4.09127
281.104	4.09424
281.418	4.09955
281.692	4.10252
281.966	4.10515
282.28	4.11047
282.561	4.11613
282.834	4.11876
283.149	4.12442
283.711	4.13542
284.019	4.13837
284.3	4.1437
284.581	4.14937
284.862	4.1547
285.169	4.15765
285.458	4.16602
285.739	4.17135
286.053	4.17701
286.334	4.18234
286.608	4.1853
286.938	4.19637
287.227	4.20473
288.073	4.21024
288.354	4.21557
288.643	4.22394
288.958	4.2296
289.497	4.23215
289.819	4.24051
290.374	4.2488
290.688	4.25413
290.969	4.25979
291.243	4.26242
291.55	4.26538
291.823	4.268
292.378	4.2763
292.685	4.27892
292.958	4.28154
293.232	4.28451
293.805	4.28705
294.078	4.28968
294.386	4.29264
294.941	4.30093
295.214	4.30356
296.061	4.30907
296.367	4.31168
296.641	4.31431
296.914	4.31694
297.221	4.3199
297.495	4.32252
298.067	4.32507
298.341	4.32803
299.203	4.33894
299.742	4.3415
300.049	4.34412
300.323	4.34708
300.596	4.34971
301.742	4.35513
302.282	4.35769
302.854	4.36023
303.394	4.36312
304.233	4.36559
305.911	4.37087
307.015	4.37326
308.153	4.37565
310.621	4.37766
312.017	4.37727
313.658	4.3687
314.747	4.36536
315.013	4.36528
316.103	4.36228
316.911	4.3536
317.211	4.35352
317.727	4.34763
318.292	4.34747
318.81	4.34192
319.367	4.33872
319.625	4.33594
320.434	4.32727
321.235	4.31589
321.777	4.30729
322.028	4.30181
322.571	4.29321
322.821	4.2874
323.08	4.28462
323.356	4.27609
323.614	4.27298
323.858	4.2648
324.149	4.26168
324.401	4.2562
324.651	4.25038
324.935	4.24456
325.186	4.23908
325.437	4.23326
325.688	4.22778
325.971	4.22196
326.23	4.21918
326.473	4.21067
326.757	4.20484
327.008	4.19936
327.266	4.19625
327.551	4.19076
327.801	4.18495
328.052	4.17913
328.31	4.17636
328.587	4.16783
328.838	4.16235
329.089	4.15654
329.372	4.15071
329.624	4.14523
329.874	4.13942
330.158	4.13359
330.409	4.12811
330.659	4.1223
330.944	4.11681
331.202	4.1137
331.453	4.10822
331.704	4.1024
331.996	4.09962
332.239	4.0911
332.497	4.08833
332.781	4.0825
333.032	4.07669
333.283	4.07121
333.567	4.06538
334.068	4.05409
334.352	4.04826
334.603	4.04279
334.854	4.03697
335.104	4.03115
335.382	4.02297
335.639	4.01985
335.891	4.01437
336.152	4.00011
336.402	3.99429
336.646	3.98611
336.914	3.97454
337.157	3.96603
337.393	3.95481
337.662	3.94358
337.905	3.93506
338.141	3.92384
338.369	3.90958
338.638	3.89836
338.866	3.88443
339.094	3.87018
339.37	3.86165
339.576	3.83928
339.811	3.82773
340.05	3.80535
340.277	3.79109
340.521	3.78292
340.749	3.76866
341.018	3.75743
341.246	3.74317
341.481	3.73195
341.742	3.71768
341.971	3.70376
342.191	3.6868
342.467	3.67827
342.68	3.65861
342.901	3.64165
343.154	3.62468
343.353	3.59962
343.543	3.57151
343.724	3.54037
343.879	3.48692
344.13	3.48144
344.305	3.4476
344.491	3.40564
344.658	3.36909
344.749	3.30451
344.916	3.36597
345.033	3.20033
345.124	3.13575
345.177	3.25369
345.292	3.19755
345.333	3.10223
345.576	3.09371
