Uv/Vis Spectrum: Phenazine
Formula: C12H8N2
CAS: 92-82-0
Melting point: 176.5
Instrument: n.i.g.
Origin: INSTITUTE OF ENERGY PROBLEMS OF CHEMICAL PHYSICS, RAS
Wavelength (nm)	Logarithm epsilon
202.78	4.05993
203.104	4.0492
204.123	4.03003
205.088	4.00375
205.389	3.9918
205.64	3.98214
205.906	3.97213
206.18	3.9618
207.911	3.94954
208.328	3.95289
208.745	3.95606
209.161	3.95915
210.65	3.9798
211.009	3.98542
211.375	3.99096
211.756	3.99643
213.928	4.01638
214.516	4.01921
215.111	4.0219
215.722	4.02451
218.239	4.03526
219.061	4.03693
219.891	4.03854
220.735	4.04002
223.383	4.04909
224.038	4.05125
224.7	4.05335
225.376	4.05532
228.606	4.07405
228.855	4.07691
229.103	4.07975
229.352	4.08257
231.185	4.09906
231.191	4.10066
231.198	4.10226
231.204	4.10385
233.095	4.13314
233.214	4.13671
233.341	4.14025
233.482	4.14376
234.612	4.16043
234.747	4.16531
234.897	4.17004
235.054	4.17467
235.834	4.18822
235.963	4.1934
236.099	4.19847
236.25	4.20341
237.021	4.21434
237.157	4.22044
237.3	4.2264
237.458	4.23221
238.228	4.24246
238.358	4.24703
238.494	4.25152
238.645	4.25589
239.261	4.26811
239.439	4.2733
239.688	4.27657
240.221	4.28071
240.221	4.28071
240.265	4.2877
240.308	4.29452
240.351	4.3012
240.351	4.3012
241.206	4.30931
241.808	4.32236
242.198	4.33567
242.417	4.34507
242.998	4.35492
243.19	4.35782
243.39	4.36067
243.604	4.36344
243.686	4.37428
243.811	4.37702
243.942	4.3797
244.089	4.38232
244.539	4.39209
244.565	4.39535
244.591	4.39855
244.617	4.40168
245.034	4.41103
245.06	4.41415
245.086	4.41721
245.111	4.42021
245.552	4.42799
245.575	4.43064
245.598	4.43323
245.62	4.43577
245.697	4.44445
245.72	4.44693
245.742	4.44939
245.765	4.45184
246.017	4.4607
246.088	4.46364
246.175	4.46653
246.268	4.46937
246.337	4.47645
246.363	4.47913
246.389	4.48177
246.414	4.48436
246.821	4.49108
246.844	4.49337
246.867	4.49561
246.889	4.49782
247.34	4.50533
247.362	4.50748
247.385	4.50962
247.407	4.51176
247.485	4.51906
247.511	4.52149
247.537	4.52389
247.562	4.52623
247.707	4.53933
247.727	4.53721
247.762	4.53505
247.805	4.53286
248.124	4.54616
248.187	4.54787
248.235	4.5558
248.266	4.54955
248.351	4.5512
248.351	4.5512
248.355	4.55651
248.49	4.5572
248.632	4.55785
248.637	4.5515
248.937	4.55178
249.127	4.57087
249.244	4.55203
249.435	4.5767
249.744	4.58245
250.053	4.58812
250.814	4.59458
251.174	4.59544
253.258	4.59178
253.264	4.5923
253.271	4.59279
253.276	4.59326
254.242	4.5863
254.496	4.58411
254.766	4.58189
255.042	4.57963
255.523	4.57448
255.597	4.57209
255.678	4.56966
255.73	4.42266
255.734	4.46458
255.759	4.42602
255.766	4.55201
255.766	4.55201
255.774	4.56719
255.788	4.42936
255.789	4.38856
255.807	4.46202
255.812	4.47271
255.812	4.39146
255.817	4.43267
255.83	4.50839
255.831	4.47474
255.835	4.39429
255.84	4.32027
255.843	4.54971
255.849	4.33021
255.851	4.47674
255.857	4.39707
255.858	4.31203
255.87	4.47869
255.884	4.34298
255.885	4.44026
255.906	4.3042
255.911	4.50623
255.911	4.44318
255.935	4.40655
255.936	4.44605
255.94	4.35955
255.957	4.4875
255.961	4.4097
255.962	4.44885
255.967	4.45987
255.98	4.4898
255.987	4.4128
255.988	4.29542
255.999	4.50404
256.002	4.49206
256.012	4.41583
256.017	4.36988
256.025	4.49429
256.037	4.5471
256.039	4.45728
256.04	4.37282
256.041	4.55252
256.052	4.52915
256.062	4.37574
256.075	4.53125
256.085	4.37864
256.098	4.5333
256.101	4.50179
256.106	4.28419
256.106	4.28419
256.12	4.53533
256.203	4.55435
256.207	4.54307
256.267	4.51756
256.282	4.51905
256.298	4.52052
256.314	4.522
256.384	4.20802
256.384	4.20802
256.391	4.55903
256.487	4.21872
256.61	4.54862
256.614	4.2776
256.625	4.5499
256.639	4.55114
256.653	4.55235
256.655	4.23378
256.794	4.25026
256.812	4.26561
257.161	4.1989
257.281	4.17717
257.281	4.17717
257.33	4.18888
257.449	4.17652
257.624	4.17577
257.814	4.17498
257.814	4.17498
257.98	4.15529
258.103	4.11802
258.117	4.03492
258.146	4.04308
258.163	4.14516
258.175	4.0511
258.204	4.05896
258.371	4.00564
258.398	4.01804
258.449	3.99983
258.512	4.09001
258.518	4.1364
258.518	4.1364
258.699	3.99584
258.945	4.06655
258.956	3.96938
259.037	3.96185
259.125	3.95413
259.227	3.94611
259.514	3.91456
259.601	3.90851
259.696	3.9023
259.805	3.89583
260.77	3.86002
260.857	3.84899
260.958	3.83749
261.066	3.82557
261.721	3.79775
262.165	3.77346
262.418	3.76278
262.696	3.75745
263.317	3.72475
263.571	3.70856
263.841	3.69161
264.117	3.67369
265.31	3.63003
265.797	3.61408
266.012	3.60347
266.14	3.58919
267.628	3.52601
267.96	3.50914
268.307	3.49157
268.661	3.47326
270.693	3.38823
271.198	3.36962
271.718	3.34988
272.245	3.32858
280.426	3.13462
281.004	3.13363
281.59	3.13262
282.191	3.13159
284.295	3.12794
285.232	3.14879
286.183	3.16779
287.141	3.18557
294.007	3.40229
294.465	3.4098
294.938	3.41716
295.418	3.42439
298.119	3.48014
298.775	3.49095
299.431	3.50149
300.087	3.51179
302.604	3.54588
303.313	3.54964
304.019	3.55695
304.727	3.56062
307.405	3.58365
308.168	3.5884
308.946	3.59292
309.732	3.59707
312.568	3.61049
313.261	3.61271
313.968	3.6146
314.682	3.61631
317.873	3.61451
318.451	3.61418
319.037	3.61385
319.638	3.61351
322.063	3.59781
322.238	3.60039
322.419	3.60264
322.616	3.6047
322.616	3.6047
322.891	3.5995
323.181	3.59422
323.479	3.58887
323.818	3.58867
324.293	3.58838
324.768	3.5881
325.244	3.58781
328.023	3.55434
328.528	3.54994
329.041	3.5453
329.569	3.54023
332.192	3.51621
332.992	3.50042
333.8	3.48404
334.623	3.467
336.731	3.43251
337.472	3.42321
338.219	3.41345
338.982	3.40296
341.916	3.32937
342.318	3.32207
342.721	3.31433
343.123	3.30581
