Uv/Vis Spectrum: Xanthene
Formula: C13H10O
CAS: 92-83-1
Melting point: 100.5
Boiling point: 311
Instrument: n.i.g.
Origin: INSTITUTE OF ENERGY PROBLEMS OF CHEMICAL PHYSICS, RAS
Wavelength (nm)	Logarithm epsilon
213.771	4.28711
213.777	4.29403
216.182	4.20272
216.194	4.21615
217.414	4.16195
217.423	4.17212
217.865	4.155
217.868	4.15866
218.64	4.11466
218.646	4.12118
219.043	4.11098
219.86	4.06046
219.872	4.07389
220.244	4.03683
220.685	4.01971
220.698	4.03314
221.908	3.96917
221.921	3.9826
222.308	3.96223
222.311	3.96549
222.683	3.92843
223.121	3.90805
223.137	3.92515
223.896	3.86731
224.29	3.85385
224.3	3.86403
225.11	3.8066
225.119	3.81677
225.481	3.76913
225.926	3.75567
225.935	3.76585
226.301	3.72187
226.31	3.73205
227.911	3.65096
227.917	3.65747
232.119	3.64053
232.125	3.64704
232.582	3.64702
232.992	3.65065
233.427	3.68075
233.43	3.68441
233.84	3.68764
235.142	3.72134
235.151	3.73151
235.612	3.73474
235.615	3.73841
236.917	3.77211
237.327	3.77534
237.333	3.78226
238.629	3.80904
238.635	3.81596
239.934	3.846
239.94	3.85291
245.894	3.91686
246.301	3.91684
246.755	3.91355
247.565	3.90984
247.568	3.9135
248.016	3.9033
248.022	3.90981
250.099	3.90318
250.499	3.89623
250.502	3.89949
255.123	3.84183
255.13	3.84875
255.517	3.82837
255.526	3.83855
255.911	3.81492
255.92	3.82509
256.362	3.80797
256.368	3.81489
256.762	3.80144
256.765	3.80469
257.991	3.75741
257.997	3.76392
258.388	3.74721
258.394	3.75372
259.623	3.7097
259.63	3.71661
260.027	3.70642
261.234	3.63878
261.259	3.66564
262.923	3.59798
262.933	3.60816
263.32	3.58779
263.327	3.5947
263.711	3.57108
263.727	3.58776
264.156	3.55721
264.165	3.56739
264.521	3.51364
264.53	3.52341
264.924	3.50996
265.284	3.45947
265.302	3.47941
266.122	3.43215
266.519	3.42195
266.525	3.42887
268.212	3.38482
268.218	3.39133
274.884	3.34738
275.341	3.34735
275.751	3.35058
275.76	3.36076
276.157	3.35056
276.618	3.35379
277.431	3.35374
279.584	3.37396
279.59	3.38088
280	3.38411
287.139	3.35641
287.152	3.37025
288.418	3.36651
288.422	3.37017
288.873	3.36322
290.058	3.32612
290.07	3.33955
290.48	3.28865
290.493	3.30249
290.858	3.25851
290.867	3.26828
291.22	3.21087
291.229	3.22105
291.633	3.16364
292.033	3.1567
292.036	3.16036
292.345	3.05534
292.348	3.059
292.386	3.09929
292.398	3.11272
292.764	3.01502
292.773	3.02479
292.799	3.05205
