Uv/Vis Spectrum: Phenothiazine
Formula: C12H9NS
CAS: 92-84-2
Melting point: 187.5
Boiling point: 371
Instrument: n.i.g.
Origin: INSTITUTE OF ENERGY PROBLEMS OF CHEMICAL PHYSICS, RAS
Wavelength (nm)	Logarithm epsilon
201.178	4.08496
201.191	4.09231
201.555	4.08225
202.199	4.06203
202.567	4.05412
202.576	4.05918
202.898	4.04864
202.907	4.05408
203.919	4.02366
204.24	4.01186
204.253	4.02054
204.613	4.00617
204.618	4.009
205.621	3.96896
205.634	3.97854
205.952	3.96229
205.956	3.96543
207.707	3.94196
208.051	3.9452
208.39	3.94516
208.777	3.94878
210.551	3.97456
210.895	3.97795
210.9	3.98097
211.282	3.98093
211.286	3.98393
211.625	3.9839
211.634	3.99021
213.443	4.00808
214.517	4.01673
214.856	4.0167
215.586	4.02248
218.4	4.03068
219.121	4.03061
219.125	4.03329
219.847	4.03322
220.191	4.03618
220.53	4.03615
220.916	4.03876
223.386	4.04409
223.73	4.04666
224.069	4.04662
224.455	4.04917
224.795	4.04914
225.139	4.05199
225.521	4.05196
227.664	4.06468
228.352	4.06987
228.356	4.07232
228.738	4.07228
229.426	4.07738
229.43	4.07979
230.513	4.09212
230.517	4.09445
231.248	4.09929
231.257	4.10414
231.596	4.10411
231.605	4.10862
232.696	4.1248
232.701	4.12695
233.087	4.12934
233.101	4.13598
233.444	4.13806
233.448	4.14015
233.793	4.14247
234.163	4.15725
234.549	4.15923
234.558	4.16345
234.902	4.1654
234.915	4.17152
235.259	4.17368
235.663	4.18345
235.681	4.19141
236.024	4.19324
236.042	4.2008
237.138	4.21568
237.169	4.22844
237.513	4.23011
237.93	4.24408
238.274	4.2457
238.301	4.25582
239.057	4.26898
239.071	4.27381
239.414	4.27532
239.423	4.27856
239.767	4.28006
239.798	4.29108
239.803	4.29255
240.175	4.28939
240.189	4.294
240.211	4.30162
240.555	4.30304
240.568	4.30751
240.912	4.30908
240.965	4.32643
241.351	4.32777
241.378	4.33616
241.717	4.33614
241.721	4.33747
242.066	4.33894
242.083	4.34436
243.179	4.35511
243.215	4.36564
243.627	4.37454
243.641	4.37833
243.984	4.37952
243.998	4.38327
244.373	4.39313
244.403	4.40151
244.79	4.40278
244.821	4.41097
244.852	4.41915
245.196	4.42023
245.231	4.42932
245.262	4.43703
245.298	4.44577
245.606	4.43807
245.641	4.44679
245.668	4.45319
245.703	4.46161
246.089	4.46259
246.116	4.46876
246.151	4.47689
246.169	4.48084
246.513	4.4819
246.522	4.4838
246.561	4.49259
246.588	4.49846
246.968	4.50695
246.998	4.5134
247.342	4.51428
247.369	4.51976
247.408	4.52785
247.444	4.53496
247.475	4.54112
247.821	4.53411
247.892	4.5479
247.901	4.54963
247.918	4.55298
247.963	4.56137
248.24	4.54962
248.258	4.55297
248.307	4.56215
248.324	4.5654
249.121	4.57909
249.46	4.57908
249.465	4.57993
249.809	4.58068
249.839	4.58614
250.226	4.58697
250.609	4.59464
250.623	4.59692
250.966	4.59764
251.348	4.59763
258.276	3.99435
258.293	4.00623
258.302	4.01223
258.342	4.03776
258.606	3.98805
258.615	3.99431
258.637	4.00938
258.892	3.94928
258.919	3.96908
259.261	3.93898
259.27	3.94598
259.561	3.90665
259.57	3.91418
259.878	3.88788
259.896	3.90301
260.555	3.84668
260.564	3.85532
260.877	3.82936
260.89	3.84251
261.893	3.78182
261.902	3.79183
262.262	3.76659
262.271	3.77696
262.588	3.75082
262.597	3.76157
263.591	3.67531
263.622	3.71737
263.931	3.67524
264.652	3.67508
265.664	3.59836
265.673	3.61354
265.999	3.59093
266.003	3.59827
266.372	3.57481
266.376	3.58242
266.707	3.56697
267.736	3.50476
268.067	3.48621
268.072	3.49553
268.444	3.47535
268.449	3.48608
268.775	3.45548
268.78	3.46547
269.445	3.43319
271.196	3.34744
271.201	3.36021
271.531	3.33244
271.909	3.31862
271.913	3.33225
272.244	3.30437
275.06	3.20233
275.395	3.18124
275.734	3.181
276.112	3.16128
276.791	3.16078
277.168	3.13748
279.624	3.11393
281.024	3.11279
281.359	3.08966
284.923	3.08657
285.267	3.10929
285.988	3.1087
286.332	3.13033
287.053	3.12976
289.536	3.2281
289.88	3.24668
290.262	3.24645
291.336	3.29419
292.015	3.29382
293.433	3.34978
294.163	3.37602
294.502	3.37587
295.232	3.39919
295.572	3.39904
298.101	3.46468
298.78	3.46443
299.167	3.47529
299.506	3.47517
299.511	3.48473
299.85	3.48461
300.236	3.49383
300.241	3.50411
302.715	3.53069
303.054	3.53059
303.44	3.53889
303.78	3.53878
303.784	3.54705
304.505	3.54683
304.85	3.55584
305.189	3.55574
307.319	3.57089
307.663	3.57943
308.724	3.57913
308.728	3.58667
309.789	3.58637
312.64	3.60122
314.422	3.60075
314.766	3.60783
317.948	3.60699
319.348	3.60663
319.683	3.59934
322.517	3.58285
322.53	3.60579
324.974	3.57456
324.978	3.58217
328.142	3.54891
328.482	3.54881
328.859	3.53942
329.538	3.53921
330.25	3.52199
332.702	3.50234
333.08	3.49304
333.419	3.49293
333.754	3.48225
334.132	3.47251
334.136	3.48212
337.296	3.4292
337.631	3.41681
337.97	3.41668
338.683	3.39369
339.404	3.39337
339.735	3.36771
339.739	3.37991
342.182	3.326
342.894	3.29567
343.569	3.28044
343.573	3.29531
343.951	3.28023
344.286	3.26464
346.729	3.1906
347.45	3.19011
347.785	3.17084
348.167	3.17056
348.502	3.15038
351.657	2.99239
352.336	2.99166
352.714	2.96077
353.053	2.96038
353.389	2.92714
