Uv/Vis Spectrum: Thianthrene
Formula: C12H8S2
CAS: 92-85-3
Melting point: 159.3
Boiling point: 365
Instrument: Cary 14
Origin: INSTITUTE OF ENERGY PROBLEMS OF CHEMICAL PHYSICS, RAS
Wavelength (nm)	Logarithm epsilon
208.615	4.4449
209.316	4.45395
209.866	4.47351
210.02	4.46281
210.727	4.4715
211.437	4.48001
212.149	4.48837
212.863	4.49656
213.578	4.5046
214.295	4.5125
215.012	4.52026
215.731	4.52788
216.449	4.53537
216.449	4.53537
217.148	4.53636
217.862	4.53733
218.607	4.53825
218.607	4.53825
218.912	4.55604
218.948	4.55062
218.984	4.54509
219.021	4.53946
219.195	4.5375
219.813	4.53674
220.447	4.53598
220.447	4.53598
220.746	4.52899
221.049	4.52189
221.354	4.51465
221.663	4.50729
221.974	4.4998
222.288	4.49216
222.605	4.48439
222.923	4.47646
223.244	4.46838
223.565	4.46015
223.889	4.45174
224.214	4.44317
224.539	4.43442
224.865	4.42548
225.192	4.41635
225.519	4.40702
225.846	4.39748
226.173	4.38772
226.499	4.37773
226.825	4.3675
227.15	4.35702
227.474	4.34628
227.796	4.33526
228.116	4.32395
228.435	4.31234
228.752	4.3004
229.067	4.28813
229.379	4.27549
229.688	4.26248
229.994	4.24906
230.297	4.23521
230.597	4.22091
230.893	4.20611
231.184	4.1908
231.472	4.17493
231.756	4.15845
232.034	4.14133
232.308	4.12351
232.577	4.10492
232.841	4.08552
232.841	4.08552
234.537	4.06414
236.479	4.04334
239.157	4.02001
239.933	4.01825
241.355	4.02013
242.807	4.022
244.275	4.02386
244.275	4.02386
246.358	4.04581
247.467	4.05536
248.552	4.06137
248.552	4.06137
249.633	4.08337
250.641	4.10414
251.579	4.12385
252.447	4.1426
253.247	4.16051
253.982	4.17768
254.652	4.19418
255.259	4.2101
255.805	4.22548
256.292	4.2404
256.721	4.2549
257.093	4.26902
257.412	4.28282
257.412	4.28282
258.052	4.29322
258.773	4.31344
259.494	4.33276
260.134	4.34205
260.134	4.34205
260.233	4.35046
260.339	4.35792
260.455	4.36473
260.583	4.37117
260.724	4.37749
260.881	4.38393
261.056	4.39072
261.25	4.39807
261.466	4.40619
261.704	4.41524
261.968	4.42539
262.259	4.43677
262.579	4.44947
262.929	4.46359
263.313	4.47916
263.731	4.49621
263.731	4.49621
263.816	4.49637
263.896	4.49659
263.973	4.49694
264.048	4.49749
264.123	4.49831
264.199	4.49946
264.279	4.50103
264.364	4.50306
264.456	4.50563
264.556	4.5088
264.667	4.51261
264.789	4.51713
264.925	4.52239
265.076	4.52843
265.245	4.53529
265.431	4.54298
265.638	4.55153
265.868	4.56095
266.12	4.57123
266.399	4.58238
266.704	4.59436
267.039	4.60718
267.403	4.62078
267.8	4.63516
268.231	4.65026
268.698	4.66605
268.698	4.66605
269.967	4.6697
270.228	4.69899
270.341	4.69489
270.565	4.689
270.572	4.67543
270.706	4.6822
271.284	4.66738
271.523	4.66511
271.811	4.66143
272.142	4.65653
272.507	4.65057
272.9	4.64373
273.311	4.63619
273.733	4.62815
274.158	4.61981
274.578	4.61139
274.986	4.60313
275.373	4.59528
275.732	4.58813
276.055	4.58196
276.333	4.57707
276.56	4.57376
276.727	4.57233
277.941	4.55911
277.992	4.56534
278.475	4.56994
280.363	4.5745
280.363	4.5745
281.29	4.58377
282.049	4.59127
282.676	4.5975
283.209	4.60289
283.684	4.60789
284.137	4.61289
284.605	4.61827
285.125	4.6244
285.734	4.63162
286.467	4.64025
286.467	4.64025
286.643	4.65527
286.794	4.6676
286.925	4.67764
287.038	4.68573
287.14	4.69215
287.234	4.69716
287.325	4.70098
287.416	4.70382
287.511	4.70588
287.616	4.70734
287.735	4.7084
287.871	4.70922
288.029	4.70999
288.029	4.70999
288.609	4.71027
289.22	4.71052
289.485	4.71192
289.848	4.71075
289.848	4.71075
290.344	4.71023
290.84	4.70972
291.337	4.70922
291.337	4.70922
291.512	4.70456
291.684	4.69984
291.855	4.69508
292.023	4.69026
292.189	4.68539
292.354	4.68046
292.517	4.67547
292.678	4.67043
292.837	4.66532
292.996	4.66015
293.153	4.65492
293.308	4.64963
293.463	4.64427
293.617	4.63884
293.769	4.63334
293.921	4.62777
294.073	4.62212
294.224	4.6164
294.375	4.61061
294.525	4.60473
294.675	4.59877
294.825	4.59273
294.975	4.5866
295.126	4.58039
295.276	4.57408
295.427	4.56768
295.579	4.56118
295.731	4.55459
295.884	4.54788
296.038	4.54108
296.193	4.53416
296.348	4.52714
296.505	4.51999
296.664	4.51273
296.824	4.50534
296.985	4.49783
297.148	4.49018
297.312	4.48239
297.479	4.47446
297.648	4.46638
297.818	4.45815
297.991	4.44975
298.166	4.4412
298.344	4.43247
298.524	4.42356
298.707	4.41446
298.893	4.40516
299.081	4.39567
299.273	4.38596
299.467	4.37603
299.665	4.36586
299.867	4.35545
300.071	4.34478
300.28	4.33385
300.492	4.32263
300.707	4.31112
300.927	4.29929
301.151	4.28713
301.379	4.27462
301.611	4.26174
301.847	4.24846
302.088	4.23477
302.334	4.22062
302.584	4.20601
302.839	4.19088
303.099	4.17521
303.365	4.15895
303.365	4.15895
304.188	4.13993
305.113	4.12046
306.144	4.10047
307.283	4.07988
308.533	4.05858
309.896	4.03644
311.376	4.01335
312.974	3.98912
314.695	3.96357
316.539	3.93645
318.511	3.90747
320.613	3.87629
322.848	3.84245
325.218	3.80537
325.218	3.80537
328.251	3.76789
331.285	3.72686
334.319	3.68154
337.353	3.63094
340.386	3.57366
340.386	3.57366
344.047	3.51669
347.711	3.45084
351.382	3.37296
355.064	3.27782
358.759	3.15568
358.759	3.15568
363.291	3.08546
368.069	3.0257
373.032	2.97844
378.121	2.94408
383.277	2.92105
388.44	2.90596
393.552	2.89414
