Uv/Vis Spectrum: Benzidine
Formula: C12H12N2
CAS: 92-87-5
Melting point: 120
Boiling point: 401
Instrument: n.i.g.
Origin: INSTITUTE OF ENERGY PROBLEMS OF CHEMICAL PHYSICS, RAS
Wavelength (nm)	Logarithm epsilon
221.451	3.98891
221.476	3.98772
221.498	3.98652
221.513	3.98532
222.392	3.9634
222.483	3.9616
222.574	3.9598
222.665	3.95798
224.53	3.89802
224.555	3.89634
224.577	3.89478
224.593	3.89329
225.747	3.86274
225.886	3.85927
226.019	3.85591
226.15	3.8526
228.032	3.79768
228.123	3.79504
228.214	3.79239
228.305	3.78972
233.464	3.65541
233.52	3.65337
233.608	3.6513
233.805	3.6474
237.71	3.60134
237.979	3.60111
238.254	3.60087
238.532	3.60062
240.32	3.59261
240.506	3.59244
240.691	3.59227
240.877	3.59211
242.54	3.60291
242.74	3.60349
242.943	3.60431
243.152	3.60526
243.152	3.60526
243.169	3.60599
243.193	3.60697
243.22	3.60806
244.339	3.61894
244.423	3.61887
244.512	3.61879
244.604	3.61872
246.276	3.64541
246.387	3.64601
246.503	3.64682
246.622	3.64775
246.622	3.64775
246.64	3.64841
246.663	3.6493
246.69	3.65029
248.151	3.67776
248.218	3.67834
248.288	3.67913
248.364	3.68003
249.968	3.72217
250.08	3.72572
250.198	3.72943
250.319	3.7332
250.319	3.7332
250.32	3.73375
250.32	3.73449
250.321	3.73533
251.794	3.77622
251.861	3.77745
251.932	3.77885
252.009	3.78033
253.138	3.81965
253.18	3.82183
253.225	3.82415
253.276	3.82653
253.276	3.82653
253.386	3.82933
253.46	3.83159
253.562	3.83526
254.686	3.86349
254.824	3.86879
254.964	3.87409
255.111	3.87946
255.111	3.87946
255.111	3.87986
255.112	3.88039
255.112	3.88099
256.253	3.90962
256.339	3.91243
256.431	3.91528
256.526	3.91824
256.526	3.91824
256.526	3.9186
256.527	3.91909
256.527	3.91963
257.386	3.94312
257.473	3.94572
257.565	3.94837
257.66	3.95111
257.66	3.95111
257.66	3.95144
257.661	3.95189
257.661	3.9524
258.951	3.99162
259.048	3.99511
259.084	3.99667
259.09	3.99766
259.805	4.01853
259.9	4.02033
259.995	4.02223
260.09	4.02416
260.09	4.02416
260.09	4.02445
260.091	4.02482
260.091	4.02525
261.236	4.0597
261.331	4.06108
261.425	4.06246
261.52	4.06383
261.52	4.06383
261.522	4.06508
261.524	4.06642
261.526	4.0678
262.241	4.08676
262.341	4.08955
262.395	4.0908
262.447	4.09159
262.447	4.09159
262.476	4.09276
262.504	4.09401
262.532	4.0953
263.248	4.11312
263.266	4.11365
263.29	4.11423
263.317	4.11488
263.317	4.11488
263.337	4.117
263.364	4.11911
263.393	4.1212
264.244	4.13965
264.289	4.14048
264.34	4.14135
264.394	4.14229
264.394	4.14229
264.396	4.14334
264.398	4.14446
264.4	4.14561
265.387	4.16478
265.493	4.16701
265.533	4.16802
265.539	4.16868
266.528	4.18839
266.624	4.19016
266.721	4.19193
266.817	4.19369
269.403	4.24857
269.448	4.24922
269.499	4.24989
269.553	4.25063
270.343	4.26692
270.361	4.26754
270.386	4.26819
270.413	4.2689
271.271	4.28512
271.316	4.2855
271.366	4.28594
271.42	4.28641
271.42	4.28641
271.422	4.28716
271.424	4.28796
271.425	4.28879
272.213	4.3027
272.313	4.3044
272.366	4.30517
272.419	4.30565
273.353	4.3189
273.452	4.32054
273.506	4.32128
273.558	4.32174
274.556	4.33344
274.662	4.33495
274.702	4.33563
274.708	4.33609
277.242	4.35673
277.328	4.35756
277.419	4.35843
277.514	4.35933
278.571	4.36748
278.771	4.36815
278.861	4.36839
278.918	4.36842
280.038	4.37542
280.133	4.37609
280.228	4.37676
280.322	4.37742
281.783	4.38271
281.85	4.38282
281.921	4.38298
281.997	4.38316
283.652	4.38683
283.697	4.38713
283.747	4.38748
283.801	4.38785
283.801	4.38785
283.894	4.38783
283.987	4.38782
284.08	4.38781
285.727	4.38852
285.82	4.38851
285.913	4.38849
286.005	4.38848
287.785	4.38433
287.877	4.38413
287.97	4.38395
288.062	4.38381
288.193	4.38322
288.326	4.3832
288.462	4.38318
288.604	4.38316
290.113	4.37696
290.139	4.37677
290.161	4.3766
290.178	4.37647
290.178	4.37647
290.297	4.37626
290.412	4.37607
290.522	4.37593
290.522	4.37593
290.613	4.37524
290.704	4.37454
290.795	4.37384
292.56	4.36439
292.717	4.36346
292.874	4.36256
293.031	4.36171
296.606	4.33255
296.657	4.33201
296.705	4.33146
296.747	4.33091
298.751	4.30876
298.751	4.30876
298.751	4.30891
298.752	4.30911
298.752	4.30933
298.893	4.30737
299.032	4.30598
299.166	4.30458
300.082	4.28746
300.224	4.28576
300.363	4.28405
300.496	4.28234
301.42	4.26818
301.471	4.26764
301.524	4.26678
301.626	4.26489
302.754	4.24605
302.754	4.24605
302.755	4.24622
302.755	4.24645
302.756	4.2467
302.845	4.24485
302.935	4.24368
303.026	4.24257
305.545	4.19274
305.55	4.1921
305.586	4.19109
305.684	4.18883
306.478	4.17201
306.502	4.17092
306.523	4.16986
306.539	4.16887
306.539	4.16887
306.586	4.16796
306.628	4.16713
306.667	4.16632
307.408	4.1486
307.416	4.14777
307.482	4.14579
307.661	4.14092
308.594	4.11837
308.599	4.11761
308.635	4.11641
308.733	4.11373
309.379	4.09276
309.379	4.09276
309.38	4.09301
309.38	4.09333
309.381	4.0937
309.469	4.09073
309.56	4.08878
309.65	4.08686
310.313	4.06769
310.338	4.06655
310.36	4.0655
310.375	4.06449
310.375	4.06449
310.427	4.06348
310.475	4.06247
310.517	4.06145
310.517	4.06145
310.542	4.06004
310.563	4.05862
310.578	4.0572
311.375	4.0366
311.375	4.0366
311.375	4.03688
311.375	4.03725
311.376	4.03766
311.465	4.03466
311.555	4.03276
311.646	4.03095
312.579	4.00053
312.603	3.99937
312.625	3.9982
312.641	3.99703
313.511	3.96782
313.535	3.96607
313.556	3.96437
313.572	3.96278
313.572	3.96278
313.62	3.96132
313.661	3.95998
313.7	3.95868
314.702	3.92552
314.702	3.92552
314.702	3.92588
314.703	3.92635
314.703	3.92689
314.818	3.92252
314.931	3.91963
315.038	3.91678
315.894	3.87988
315.894	3.87988
315.894	3.88028
315.895	3.88081
315.895	3.8814
315.984	3.8771
316.075	3.87436
316.166	3.87175
317.904	3.80518
318.009	3.80089
318.079	3.79837
318.176	3.7955
318.176	3.7955
318.223	3.79287
318.264	3.79024
318.303	3.78758
318.843	3.76322
318.843	3.76322
318.844	3.76373
318.844	3.76443
318.845	3.76521
318.938	3.75698
319.008	3.75304
319.112	3.74803
