Uv/Vis Spectrum: p-Diphenylbenzene
Formula: C18H14
CAS: 92-94-4
Melting point: 213-214
Instrument: Unicam SP 700
Origin: INSTITUTE OF ENERGY PROBLEMS OF CHEMICAL PHYSICS, RAS
Wavelength (nm)	Logarithm epsilon
197.62	4.632
197.7	4.632
197.79	4.632
197.87	4.632
197.96	4.634
198.04	4.634
198.13	4.634
198.21	4.634
198.3	4.634
198.38	4.636
198.47	4.636
198.64	4.645
198.98	4.653
199.32	4.657
199.67	4.668
200.02	4.677
200.36	4.683
200.71	4.69
201.06	4.696
201.41	4.7
201.76	4.709
202.12	4.711
202.47	4.717
202.83	4.722
203.18	4.726
203.54	4.732
203.9	4.737
204.26	4.741
204.63	4.743
204.99	4.745
205.35	4.745
205.72	4.745
206.09	4.745
206.49	4.741
206.85	4.735
207.25	4.727
207.57	4.72
207.94	4.711
208.31	4.703
208.7	4.696
209.07	4.687
209.45	4.681
209.83	4.672
210.24	4.663
210.66	4.651
211.11	4.637
211.62	4.619
211.96	4.604
212.36	4.587
212.72	4.571
212.86	4.564
213.24	4.549
213.66	4.53
214.12	4.51
214.51	4.486
214.91	4.46
215.32	4.435
215.72	4.411
216.12	4.386
216.53	4.358
216.93	4.323
217.34	4.302
217.75	4.281
218.16	4.259
218.58	4.238
218.99	4.216
219.41	4.197
219.83	4.18
220.25	4.161
220.67	4.141
221.09	4.122
221.51	4.101
221.94	4.079
222.37	4.062
222.8	4.039
223.23	4.017
223.66	3.994
224.09	3.972
224.53	3.951
224.97	3.93
225.41	3.897
225.85	3.87
226.29	3.842
226.74	3.816
227.18	3.795
227.63	3.765
228.08	3.739
228.53	3.709
228.99	3.681
229.44	3.658
229.9	3.63
230.36	3.611
230.82	3.591
231.28	3.574
231.74	3.557
232.21	3.544
232.68	3.527
233.15	3.516
233.62	3.508
234.09	3.499
234.57	3.495
235.05	3.497
235.54	3.505
236.05	3.516
236.51	3.53
237.03	3.546
237.5	3.562
237.99	3.577
238.47	3.592
238.94	3.608
239.44	3.628
239.94	3.647
240.5	3.666
240.97	3.682
241.44	3.705
241.95	3.724
242.48	3.74
242.97	3.758
243.48	3.771
243.89	3.788
244.45	3.806
245.02	3.824
245.61	3.843
246.07	3.861
246.6	3.882
247.13	3.904
247.66	3.927
248.19	3.951
248.73	3.972
249.26	3.994
249.8	4.015
250.34	4.037
250.89	4.052
251.44	4.073
251.98	4.088
252.54	4.107
253.09	4.129
253.65	4.144
254.2	4.161
254.77	4.178
255.33	4.193
255.9	4.21
256.46	4.225
257.03	4.238
257.61	4.255
258.18	4.268
258.76	4.281
259.35	4.298
259.93	4.311
260.52	4.321
261.11	4.334
261.7	4.345
262.29	4.353
262.89	4.364
263.49	4.375
264.09	4.386
264.58	4.393
265.32	4.403
265.92	4.411
266.53	4.42
267.23	4.43
267.77	4.437
268.39	4.443
269.02	4.452
269.63	4.459
270.28	4.465
270.91	4.471
271.54	4.477
272.16	4.483
272.72	4.488
273.48	4.493
274.07	4.496
274.75	4.5
275.44	4.503
276.1	4.505
276.76	4.508
277.42	4.508
278.09	4.508
278.76	4.508
279.44	4.508
280.11	4.507
280.8	4.505
281.48	4.503
282.14	4.5
282.88	4.495
283.56	4.49
284.17	4.486
284.96	4.48
285.65	4.474
286.37	4.467
287.09	4.458
287.8	4.45
288.52	4.441
289.24	4.435
289.97	4.424
290.7	4.409
291.44	4.398
292.17	4.386
292.91	4.373
293.66	4.349
294.41	4.328
295.16	4.308
295.92	4.287
296.68	4.261
297.44	4.24
298.21	4.214
298.99	4.191
299.76	4.169
300.54	4.139
301.33	4.114
302.12	4.082
302.91	4.052
303.71	4.017
304.51	3.981
305.22	3.943
306.12	3.897
306.94	3.855
307.76	3.812
308.78	3.766
309.88	3.709
310.58	3.671
311.07	3.649
311.85	3.603
312.72	3.552
313.44	3.508
314.46	3.439
315.32	3.375
316.19	3.319
