Uv/Vis Spectrum: 1,1'-Biphenyl, 4-nitro-
Formula: C12H9NO2
CAS: 92-93-3
Melting point: 114
Boiling point: 340
Instrument: n.i.g.
Origin: INSTITUTE OF ENERGY PROBLEMS OF CHEMICAL PHYSICS, RAS
Wavelength (nm)	Logarithm epsilon
407.398	1.19393
407.053	1.2323
406.708	1.27068
406.363	1.30906
406.016	1.34744
405.667	1.38582
405.315	1.4242
404.959	1.46258
404.599	1.50096
404.599	1.50096
404.014	1.50693
403.519	1.54252
403.021	1.5779
402.514	1.61307
401.993	1.64807
401.45	1.6829
400.88	1.71759
400.277	1.75216
399.635	1.78663
398.947	1.82102
398.21	1.85535
397.416	1.88964
397.416	1.88964
396.93	1.92403
396.339	1.95831
395.659	1.99249
394.905	2.02656
394.093	2.06053
393.239	2.09441
392.357	2.12819
391.462	2.1619
390.57	2.19551
389.694	2.22906
388.848	2.26252
388.047	2.29592
387.304	2.32926
386.633	2.36253
386.047	2.39575
385.559	2.42892
385.559	2.42892
384.558	2.46206
383.562	2.4952
382.571	2.52835
381.585	2.56149
380.604	2.59462
379.628	2.62776
378.658	2.66089
377.692	2.69401
376.731	2.72714
375.775	2.76025
374.824	2.79336
373.877	2.82646
372.936	2.85955
371.999	2.89264
371.067	2.92571
370.139	2.95878
369.216	2.99183
369.216	2.99183
368.394	3.00648
368.041	3.01774
367.973	3.0334
367.973	3.0334
365.371	3.11024
363.625	3.16281
362.524	3.19716
361.87	3.21936
361.47	3.23546
361.136	3.25153
361.136	3.25153
359.881	3.27059
359.338	3.28911
359.027	3.31095
359.027	3.31095
356.877	3.37109
355.22	3.42072
353.937	3.4601
352.916	3.48951
352.052	3.50922
352.052	3.50922
351.111	3.54054
350.123	3.57206
349.092	3.60371
348.021	3.63539
346.911	3.66706
345.765	3.69863
344.587	3.73003
343.378	3.76119
342.14	3.79204
340.878	3.82251
339.592	3.85252
338.285	3.882
336.959	3.91088
335.617	3.9391
334.261	3.96657
334.261	3.96657
331.694	3.99733
329.613	4.02431
327.629	4.04986
325.375	4.07636
325.375	4.07636
322.935	4.09496
320.538	4.1113
318.164	4.12524
315.794	4.13665
313.409	4.1454
310.992	4.15134
308.528	4.15433
306.001	4.15426
306.001	4.15426
303.727	4.13985
301.514	4.12548
299.36	4.11059
297.266	4.09462
295.231	4.077
293.255	4.05718
291.338	4.03458
289.479	4.00866
289.479	4.00866
288.206	4.00204
287.61	3.98994
286.642	3.96712
286.642	3.96712
286.012	3.95743
284.726	3.9334
283.025	3.89968
281.145	3.8609
279.309	3.82171
277.731	3.78677
276.614	3.7607
276.161	3.74816
276.161	3.74816
275.688	3.73732
275.283	3.72622
274.722	3.71503
274.722	3.71503
273.805	3.68575
272.877	3.65635
271.928	3.62706
270.953	3.59813
269.944	3.56979
268.895	3.54227
267.8	3.51582
266.651	3.49068
265.445	3.46708
264.174	3.44526
262.834	3.42546
261.42	3.40792
259.928	3.39286
258.355	3.38055
258.355	3.38055
256.549	3.37748
254.932	3.3758
253.436	3.37616
251.999	3.37919
250.559	3.38554
249.059	3.39585
247.444	3.41076
247.444	3.41076
246.292	3.42983
245.176	3.45052
244.097	3.47271
243.056	3.49627
242.052	3.52108
241.087	3.54702
240.16	3.57395
239.272	3.60176
238.423	3.63032
237.613	3.65951
236.843	3.68919
236.113	3.71925
235.423	3.74956
234.775	3.77999
234.167	3.81042
233.602	3.84073
