Uv/Vis Spectrum: Pyrrolidine, 1-nitroso-
Formula: C4H8N2O
CAS: 930-55-2
Boiling point: 214
Instrument: Perkin- Elmer 12B
Origin: INSTITUTE OF ENERGY PROBLEMS OF CHEMICAL PHYSICS, RAS
Wavelength (nm)	Logarithm epsilon
247.855	3.65153
247.855	3.65153
247.925	3.65996
248.009	3.66839
248.12	3.67682
248.271	3.64829
248.688	3.64479
249.104	3.64115
249.104	3.64115
249.449	3.62454
250.024	3.60217
250.786	3.57505
251.69	3.54416
252.693	3.5105
253.75	3.47507
254.817	3.43886
255.85	3.40287
256.805	3.36809
257.637	3.33551
258.303	3.30613
258.423	3.24051
258.759	3.28094
258.863	3.24714
258.96	3.26095
259.13	3.16749
259.185	3.16023
259.253	3.15283
259.347	3.14516
273.423	1.97958
273.427	1.98318
273.43	1.98664
273.433	1.98983
285.303	1.37973
285.533	1.37066
285.764	1.36159
285.995	1.35253
302.436	1.53897
302.753	1.53894
303.098	1.53891
303.455	1.53887
303.455	1.53887
303.459	1.54247
303.462	1.54593
303.466	1.54912
307.019	1.62412
307.744	1.63162
308.014	1.63675
308.059	1.64391
309.581	1.66667
309.724	1.67266
309.895	1.67852
310.078	1.6841
314.109	1.75665
314.787	1.77268
315.478	1.78844
316.196	1.80406
323.82	1.93171
324.307	1.93588
324.806	1.94005
325.332	1.94422
332.33	1.98391
332.99	1.98384
333.649	1.98378
334.309	1.98371
338.297	1.95256
339.378	1.95364
340.458	1.95458
341.539	1.95525
341.539	1.95525
341.933	1.94574
342.517	1.9385
343.79	1.92729
365.156	1.33673
365.285	1.32828
365.441	1.31982
365.611	1.31137
370.933	1.11489
371.166	1.10746
371.398	1.09975
371.63	1.09192
