Uv/Vis Spectrum: 2-Naphthalenecarboxylic acid
Formula: C11H8O2
CAS: 93-09-4
Melting point: 185.5
Instrument: unknown
Origin: INSTITUTE OF ENERGY PROBLEMS OF CHEMICAL PHYSICS, RAS
Wavelength (nm)	Logarithm epsilon
216.76	4.407
216.93	4.411
217.1	4.416
217.26	4.42
217.43	4.424
217.59	4.428
217.76	4.432
217.93	4.436
218.09	4.441
218.26	4.445
218.42	4.449
219.02	4.464
219.42	4.474
220.08	4.49
220.76	4.507
221.36	4.523
222.07	4.54
222.74	4.557
223.42	4.568
224.07	4.581
224.73	4.59
225.39	4.602
226	4.614
226.73	4.628
227.39	4.639
228.05	4.652
228.71	4.66
229.38	4.673
230.01	4.681
230.63	4.686
231.37	4.689
232.03	4.689
232.7	4.685
233.42	4.683
234.02	4.677
234.69	4.673
235.35	4.66
236.02	4.652
236.75	4.634
237.34	4.619
237.85	4.603
238.67	4.573
239.34	4.548
240	4.503
240.66	4.47
241.33	4.403
242.01	4.352
242.5	4.298
243.24	4.225
243.84	4.176
244.57	4.104
245.31	4.014
245.98	3.947
246.64	3.869
247.3	3.79
247.97	3.711
248.63	3.641
249.27	3.575
249.96	3.525
250.62	3.483
251.29	3.442
251.95	3.413
252.61	3.4
253.28	3.4
253.94	3.404
254.6	3.417
255.27	3.429
255.93	3.442
256.59	3.452
257.26	3.467
257.93	3.479
258.59	3.491
259.25	3.508
259.92	3.52
260.58	3.533
261.24	3.549
261.91	3.566
262.57	3.578
263.24	3.591
263.9	3.599
264.55	3.609
265.23	3.622
265.89	3.636
266.56	3.645
267.22	3.661
267.88	3.678
268.58	3.694
269.21	3.703
269.88	3.711
270.54	3.719
271.2	3.724
271.87	3.732
272.53	3.732
273.2	3.736
273.86	3.736
274.52	3.74
275.19	3.744
275.85	3.744
276.51	3.753
277.18	3.769
277.84	3.794
278.51	3.815
279.06	3.835
279.45	3.839
279.83	3.831
280.5	3.802
281.16	3.777
281.83	3.761
282.49	3.744
283.15	3.732
283.82	3.724
284.48	3.715
285.15	3.699
285.81	3.69
286.47	3.686
287.14	3.674
287.8	3.67
288.46	3.657
289.13	3.653
289.79	3.653
290.46	3.653
291.12	3.653
291.78	3.645
292.45	3.636
293.11	3.616
293.78	3.591
294.44	3.554
295.1	3.512
295.77	3.471
296.43	3.429
297.1	3.392
297.81	3.353
298.43	3.321
299.09	3.293
299.63	3.258
300.41	3.21
301.08	3.164
301.74	3.11
302.41	3.069
303.07	3.027
303.73	2.973
304.34	2.94
305.06	2.907
305.73	2.878
306.39	2.866
307.05	2.853
307.72	2.845
308.38	2.853
309.05	2.866
309.71	2.874
310.37	2.886
311.04	2.895
311.7	2.907
312.37	2.915
313.03	2.928
313.71	2.94
314.36	2.949
315.02	2.961
315.68	2.978
316.35	2.982
317.01	2.982
317.68	2.99
318.34	3.007
319	3.007
319.67	3.011
320.33	3.011
321	3.011
321.66	3.007
322.32	3.002
322.99	2.998
323.65	2.994
324.32	2.99
324.98	2.994
325.64	2.998
326.31	3.007
326.97	3.011
327.63	3.027
328.3	3.036
328.96	3.048
329.63	3.06
330.29	3.073
330.95	3.085
331.62	3.094
332.25	3.101
332.95	3.102
333.61	3.102
334.27	3.081
334.94	3.056
335.6	3.007
336.27	2.961
336.93	2.895
337.59	2.832
338.16	2.777
338.71	2.728
339.42	2.66
340.13	2.584
340.91	2.497
341.58	2.41
