Uv/Vis Spectrum: 2-Cyclohexen-1-one
Formula: C6H8O
CAS: 930-68-7
Boiling point: 169-171
Instrument: Specord UV-Vis
Origin: INSTITUTE OF ENERGY PROBLEMS OF CHEMICAL PHYSICS, RAS
Wavelength (nm)	Logarithm epsilon
205.847	2.707
206.847	2.752
207.847	2.806
208.847	2.865
209.847	2.927
210.77	2.983
212.27	3.067
213.77	3.143
215.27	3.201
216.77	3.24
218.27	3.263
219.77	3.276
221.27	3.282
222.77	3.282
224.27	3.277
225.77	3.26
227.27	3.224
228.77	3.158
229.83	3.074
230.687	2.984
231.33	2.901
232.4	2.805
233.206	2.717
234.206	2.628
235.206	2.542
236.206	2.458
237.206	2.374
238.206	2.289
239.206	2.203
240.206	2.115
241.206	2.024
242.206	1.93
243.206	1.834
244.206	1.736
245.206	1.636
246.206	1.537
247.206	1.44
248.206	1.347
249.206	1.261
249.845	1.21
251.345	1.124
252.845	1.07
254.345	1.038
255.845	1.023
257.345	1.018
258.845	1.019
260.345	1.022
261.845	1.025
263.345	1.026
264.845	1.024
266.345	1.021
267.862	1.025
269.328	1.025
270.845	1.028
272.531	1.038
273.531	1.044
274.531	1.05
275.531	1.055
276.531	1.06
277.531	1.064
278.531	1.068
278.726	1.068
279.726	1.074
280.726	1.081
281.726	1.089
282.726	1.097
283.726	1.105
284.726	1.115
285.726	1.124
286.726	1.134
287.726	1.144
288.726	1.154
289.726	1.165
290.726	1.175
291.726	1.186
292.726	1.196
293.726	1.206
294.726	1.217
295.726	1.227
296.726	1.237
297.726	1.247
298.726	1.257
299.726	1.267
300.726	1.276
301.726	1.285
302.726	1.294
303.726	1.303
304.726	1.311
305.726	1.319
306.726	1.327
307.726	1.334
308.726	1.341
309.726	1.348
310.726	1.354
311.726	1.359
312.726	1.364
313.726	1.368
314.726	1.371
315.726	1.373
316.726	1.374
317.726	1.375
318.631	1.377
319.631	1.372
320.631	1.366
321.631	1.359
322.631	1.351
323.631	1.342
324.631	1.332
325.631	1.322
326.631	1.31
327.631	1.299
328.631	1.287
329.631	1.275
330.631	1.263
331.631	1.252
332.631	1.241
333.631	1.231
334.631	1.221
335.631	1.212
336.631	1.202
337.631	1.192
338.631	1.181
339.631	1.168
340.557	1.156
