Uv/Vis Spectrum: Naphthalene, 2-methoxy-
Formula: C11H10O
CAS: 93-04-9
Melting point: 73.5
Boiling point: 274
Instrument: n.i.g.
Origin: INSTITUTE OF ENERGY PROBLEMS OF CHEMICAL PHYSICS, RAS
Wavelength (nm)	Logarithm epsilon
345.722	1.20473
345.611	1.21255
345.54	1.21667
345.43	1.24055
344.777	1.2975
344.539	1.3292
344.05	1.39264
343.55	1.45623
343.298	1.48812
343.072	1.52901
342.939	1.54966
342.687	1.57184
342.545	1.58319
342.045	1.64338
341.796	1.67368
341.332	1.74948
341.085	1.78758
340.835	1.80643
340.695	1.81606
340.588	1.84284
340.518	1.85648
340.27	1.85971
340.13	1.86153
339.777	1.91035
339.602	1.93502
339.11	1.98568
338.865	2.01126
338.409	2.07295
338.166	2.10405
337.434	2.17859
337.054	2.21611
336.531	2.28501
335.984	2.35391
335.743	2.37597
335.263	2.42051
335.159	2.43626
334.921	2.46827
334.817	2.47438
334.579	2.48711
334.467	2.51099
334.204	2.55876
333.966	2.58875
333.49	2.64924
333.388	2.65535
333.152	2.66807
332.915	2.69335
332.443	2.74432
332.341	2.75042
332.106	2.76315
332.063	2.77798
331.938	2.80816
331.827	2.80967
331.569	2.81321
331.467	2.83356
331.234	2.87476
331.124	2.87627
330.867	2.87981
330.567	2.91599
329.968	2.98852
329.67	3.02495
329.461	3.03428
329.339	3.03919
328.415	3.10581
327.956	3.13932
327.292	3.18171
326.942	3.20316
326.737	3.20959
326.617	3.21281
326.487	3.2142
326.422	3.21511
325.999	3.2165
325.774	3.2174
325.774	3.22383
325.418	3.21281
325.298	3.20638
325.257	3.20316
324.912	3.13748
324.582	3.0718
324.26	3.00612
323.917	2.97902
323.269	2.92482
322.999	2.91962
322.285	2.90829
322.063	2.90659
321.621	2.9037
321.339	2.90781
320.803	2.91564
320.522	2.91564
319.99	2.91564
319.771	2.90751
319.335	2.89175
319.118	2.87891
318.684	2.85363
318.407	2.85363
317.881	2.85363
317.749	2.85542
317.082	2.86052
316.808	2.86374
316.287	2.87017
316.227	2.87428
316.135	2.88211
316.022	2.88623
315.83	2.89405
315.718	2.89495
315.526	2.89635
315.353	2.90678
315.042	2.92712
314.771	2.93034
314.257	2.93677
314.085	2.9426
313.776	2.95376
313.665	2.95546
313.476	2.95835
313.208	2.96006
312.699	2.96295
312.432	2.96065
311.926	2.95606
311.81	2.94713
311.452	2.92988
311.246	2.9098
310.862	2.87017
310.745	2.86295
310.538	2.84904
310.429	2.8362
310.244	2.81092
310.136	2.80279
309.951	2.78703
309.719	2.77359
309.483	2.76315
308.967	2.76225
307.972	2.76085
307.778	2.77846
307.222	2.82286
307.058	2.82516
306.763	2.82975
306.562	2.83065
306.161	2.83204
305.963	2.82885
305.591	2.81321
305.591	2.81643
305.591	2.82286
305.429	2.81
305.136	2.80357
304.939	2.79072
304.57	2.76545
304.457	2.76315
304.259	2.75856
304.038	2.74034
303.387	2.69655
303.226	2.69163
302.938	2.68231
302.742	2.67819
302.352	2.67037
302.158	2.67127
301.795	2.67266
301.498	2.67758
300.937	2.6869
300.587	2.68872
299.919	2.69196
299.434	2.69196
298.5	2.69196
298.311	2.69014
297.957	2.6869
297.85	2.68279
297.66	2.67496
297.56	2.67406
297.39	2.67266
297.136	2.66702
295.861	2.64419
294.711	2.64249
292.981	2.64419
292.798	2.6497
292.433	2.66072
292.38	2.66394
292.276	2.67037
292.067	2.67498
291.627	2.68461
291.445	2.69243
291.083	2.70849
290.692	2.7322
290.284	2.7535
290.2	2.75672
290.002	2.76315
289.874	2.77327
289.618	2.79392
289.534	2.79544
289.337	2.79897
289.304	2.80358
289.21	2.81321
288.824	2.83199
288.421	2.84904
288.388	2.85273
288.295	2.86052
288.211	2.86204
288.016	2.86557
287.983	2.87108
287.89	2.88211
287.813	2.88532
287.637	2.89175
287.561	2.89786
287.385	2.91059
287.302	2.9138
287.109	2.92023
286.856	2.93447
286.332	2.96295
286.256	2.97077
286.082	2.98683
285.956	2.98834
285.683	2.99188
285.651	2.99328
285.559	2.99648
285.187	3.02715
284.914	3.05573
284.832	3.05724
284.642	3.06078
284.551	3.08305
284.395	3.10809
284.314	3.1096
284.124	3.11314
283.969	3.13027
283.633	3.16504
283.552	3.16655
283.363	3.17009
283.332	3.17882
283.241	3.19627
282.887	3.22911
282.485	3.27252
282.363	3.27713
282.096	3.28676
281.832	3.30062
281.491	3.32212
281.411	3.32444
281.226	3.32947
281.057	3.33087
280.72	3.33407
280.479	3.33407
279.977	3.33407
279.857	3.33267
279.596	3.32947
279.06	3.31763
278.126	3.2964
278.054	3.29319
277.89	3.28676
277.654	3.28354
277.162	3.27711
277.085	3.2748
276.905	3.26976
276.741	3.26976
276.415	3.26976
276.078	3.27866
275.695	3.28676
275.417	3.301
274.863	3.32947
274.747	3.33328
274.495	3.34142
274.465	3.34523
274.38	3.35336
274.215	3.3621
274.036	3.37448
273.921	3.3783
273.671	3.38643
273.641	3.39024
273.557	3.39837
273.317	3.40613
272.965	3.41766
272.896	3.42317
272.738	3.43419
272.579	3.4388
272.262	3.44843
272.079	3.45745
271.789	3.47691
271.72	3.4775
271.563	3.47921
271.136	3.48853
270.266	3.50768
269.931	3.50709
269.245	3.50539
269.024	3.50309
268.562	3.4985
268.255	3.49207
267.642	3.47921
267.423	3.47632
266.966	3.47002
266.663	3.46359
266.057	3.45073
265.878	3.44751
265.497	3.44108
265.319	3.442
264.94	3.44384
264.354	3.45109
263.619	3.46037
263.446	3.46396
262.754	3.47461
262.5	3.48013
261.977	3.49115
261.553	3.49174
260.686	3.49344
260.582	3.49496
260.355	3.4985
260.329	3.4985
260.252	3.4985
258.978	3.47691
258.978	3.47831
258.59	3.46648
257.818	3.44614
257.177	3.4319
255.927	3.40342
255.853	3.4008
255.727	3.39607
255.614	3.39437
255.409	3.39148
255.27	3.38826
254.992	3.38183
254.853	3.37692
254.576	3.3676
254.103	3.35625
253.162	3.33407
252.987	3.32855
252.655	3.31753
252.209	3.3071
251.338	3.28676
251.166	3.28184
250.839	3.27252
250.705	3.26609
250.456	3.25323
250.213	3.25003
249.75	3.24404
249.609	3.24015
249.351	3.2298
249.149	3.22477
248.765	3.21511
247.902	3.19069
247.116	3.1678
246.893	3.16407
246.448	3.15815
245.999	3.15645
245.488	3.15815
245.336	3.15955
245.012	3.16275
244.952	3.16506
244.811	3.17009
244.464	3.17882
243.774	3.19627
243.719	3.19949
243.593	3.20592
243.466	3.20881
243.213	3.21511
242.906	3.22475
242.279	3.24404
241.819	3.25231
241.441	3.26058
241.329	3.26519
241.086	3.27481
240.908	3.27942
240.538	3.28905
240.48	3.29286
240.344	3.301
240.291	3.30159
240.168	3.30329
240.022	3.3071
239.712	3.31523
239.567	3.31663
239.257	3.31983
239.2	3.32214
239.065	3.32718
238.735	3.3359
238.077	3.35336
238.077	3.35395
238.077	3.35565
