Uv/Vis Spectrum: cis-Cyclooctene
Formula: C8H14
CAS: 931-87-3
Melting point: -12
Boiling point: 138
Instrument: Cary 17 1
Origin: INSTITUTE OF ENERGY PROBLEMS OF CHEMICAL PHYSICS, RAS
Wavelength (nm)	Logarithm epsilon
185.41	3.93659
185.806	3.94526
186.204	3.95387
186.606	3.9624
187.014	3.97079
187.428	3.979
187.852	3.98698
187.852	3.98698
188.323	3.99225
188.796	3.99746
189.27	4.00261
189.744	4.00772
190.219	4.01282
190.219	4.01282
190.536	4.01304
190.879	4.01341
191.242	4.01378
191.622	4.01399
192.013	4.01388
192.412	4.01328
192.813	4.01204
193.213	4.00999
193.606	4.00697
193.988	4.00282
194.355	3.99739
194.703	3.99051
195.025	3.98202
195.32	3.97176
195.32	3.97176
195.693	3.96507
196.052	3.95679
196.4	3.94719
196.743	3.93649
197.082	3.92498
197.421	3.91288
197.765	3.90046
198.116	3.88797
198.116	3.88797
198.411	3.87461
198.703	3.86105
198.989	3.84727
199.272	3.83328
199.55	3.81909
199.824	3.8047
200.093	3.7901
200.359	3.77529
200.621	3.7603
200.878	3.7451
201.132	3.72971
201.382	3.71412
201.629	3.69834
201.871	3.68237
202.11	3.66622
202.345	3.64988
202.577	3.63335
202.806	3.61664
203.031	3.59975
203.253	3.58269
203.472	3.56544
203.688	3.54802
203.9	3.53043
204.109	3.51267
204.316	3.49473
204.52	3.47663
204.721	3.45837
204.919	3.43994
204.919	3.43994
205.074	3.41971
205.223	3.39913
205.367	3.37823
205.507	3.35707
205.643	3.33569
205.776	3.31414
205.907	3.29247
206.036	3.27073
206.164	3.24895
206.292	3.2272
206.292	3.2272
206.381	3.20729
206.47	3.18739
206.559	3.16749
206.649	3.14758
206.738	3.12768
206.827	3.10777
206.916	3.08787
207.005	3.06796
207.095	3.04806
207.184	3.02815
207.273	3.00825
207.362	2.98834
207.452	2.96843
207.541	2.94853
207.63	2.92862
207.719	2.90871
207.809	2.8888
207.898	2.8689
207.987	2.84899
208.076	2.82908
208.166	2.80917
208.255	2.78926
208.344	2.76935
208.434	2.74944
208.523	2.72953
208.612	2.70961
208.702	2.6897
208.791	2.66979
208.88	2.64987
208.97	2.62996
209.059	2.61004
209.149	2.59013
209.238	2.57021
209.327	2.55029
209.417	2.53038
209.506	2.51046
209.596	2.49054
209.685	2.47062
209.775	2.4507
209.864	2.43077
209.954	2.41085
210.043	2.39092
210.133	2.371
210.223	2.35107
210.312	2.33114
210.402	2.31122
