Uv/Vis Spectrum: Pyrimidine, 2-methoxy-
Formula: C5H6N2O
CAS: 931-63-5
Instrument: n.i.g.
Origin: INSTITUTE OF ENERGY PROBLEMS OF CHEMICAL PHYSICS, RAS
Wavelength (nm)	Logarithm epsilon
206.29	3.907
206.59	3.907
206.89	3.904
207.19	3.904
207.49	3.881
208.08	3.83
208.68	3.795
209.28	3.76
209.88	3.699
210.48	3.657
211.08	3.625
211.68	3.551
212.28	3.503
212.87	3.471
213.47	3.407
214.07	3.359
214.67	3.324
215.27	3.244
215.87	3.189
216.47	3.138
217.07	3.067
217.66	3.019
218.26	2.929
218.86	2.881
219.46	2.821
220.06	2.696
220.66	2.651
221.26	2.593
221.86	2.564
222.46	2.542
223.05	2.51
223.65	2.484
224.25	2.455
224.85	2.455
225.45	2.452
226.05	2.442
226.65	2.442
227.25	2.455
227.84	2.471
228.44	2.478
229.04	2.484
229.64	2.506
230.24	2.535
230.84	2.564
231.44	2.603
232.04	2.638
232.63	2.702
233.23	2.756
233.83	2.795
234.43	2.821
235.03	2.869
235.63	2.91
236.23	2.942
236.83	2.955
237.43	2.987
238.02	3.01
238.62	3.042
239.22	3.071
239.82	3.099
240.42	3.115
241.02	3.151
241.62	3.186
242.22	3.224
242.81	3.247
243.41	3.276
244.01	3.301
244.61	3.333
245.21	3.362
245.81	3.394
246.41	3.423
247.01	3.439
247.6	3.471
248.2	3.5
248.8	3.526
249.4	3.545
250	3.561
250.6	3.58
251.2	3.593
251.8	3.606
252.4	3.619
252.99	3.635
253.59	3.647
254.19	3.66
254.79	3.683
255.39	3.689
255.99	3.692
256.59	3.689
257.19	3.679
257.78	3.673
258.38	3.667
258.98	3.667
259.58	3.667
260.18	3.667
260.78	3.667
261.38	3.66
261.98	3.647
262.57	3.625
263.17	3.59
263.77	3.561
264.37	3.529
264.97	3.497
265.57	3.465
266.17	3.423
266.77	3.388
267.37	3.356
267.96	3.324
268.56	3.266
269.16	3.218
269.76	3.186
270.36	3.141
270.96	3.054
271.56	3.019
272.16	2.987
272.75	2.917
273.35	2.843
273.95	2.756
274.55	2.705
275.15	2.66
275.75	2.58
276.35	2.535
276.95	2.503
277.54	2.436
278.14	2.385
278.74	2.333
279.34	2.276
279.94	2.231
280.54	2.202
