Uv/Vis Spectrum: 5-Aminouracil
Formula: C4H5N3O2
CAS: 932-52-5
Melting point: > 300
Instrument: n.i.g.
Origin: INSTITUTE OF ENERGY PROBLEMS OF CHEMICAL PHYSICS, RAS
Wavelength (nm)	Logarithm epsilon
221.02	3.999
222.39	4.008
224.38	4.016
226.46	4.017
227.74	4.014
229.18	4.006
230.54	3.996
231.9	3.982
233.27	3.959
234.63	3.935
235.69	3.913
237.35	3.882
238.71	3.853
240.07	3.822
241.43	3.792
242.55	3.769
244.15	3.734
245.43	3.709
246.87	3.683
248.23	3.658
249.59	3.636
250.64	3.622
252.01	3.605
253.67	3.59
255.03	3.578
256.33	3.573
257.98	3.574
259.12	3.578
260.51	3.59
261.84	3.608
263.2	3.625
264.56	3.642
265.92	3.663
267.28	3.683
268.64	3.703
270	3.721
271.21	3.739
272.72	3.764
274.08	3.788
275.44	3.814
276.8	3.836
278.16	3.853
279.52	3.869
280.88	3.885
282.24	3.897
283.61	3.909
284.79	3.918
286.09	3.927
287.69	3.932
289.1	3.932
290.41	3.926
291.77	3.921
293.13	3.912
294.49	3.9
295.85	3.888
297.21	3.875
298.57	3.863
299.93	3.846
301.29	3.825
302.65	3.803
303.64	3.784
305.37	3.743
306.86	3.705
308.03	3.667
309.46	3.602
311.11	3.517
312.18	3.463
313.58	3.414
314.9	3.372
316.39	3.334
317.62	3.307
