Uv/Vis Spectrum: Benzene, (bromoethynyl)-
Formula: C8H5Br
CAS: 932-87-6
Instrument: Beckman DK-2
Origin: INSTITUTE OF ENERGY PROBLEMS OF CHEMICAL PHYSICS, RAS
Wavelength (nm)	Logarithm epsilon
228.49	3.829
228.54	3.83
228.58	3.83
228.63	3.831
228.67	3.832
228.72	3.832
228.76	3.833
228.81	3.834
228.85	3.835
229.03	3.837
229.21	3.839
229.39	3.842
229.57	3.844
229.75	3.846
229.93	3.849
230.11	3.851
230.29	3.853
230.47	3.856
230.65	3.858
230.83	3.861
231.01	3.863
231.19	3.865
231.37	3.867
231.55	3.869
231.73	3.872
231.91	3.873
232.09	3.875
232.27	3.877
232.45	3.879
232.63	3.881
232.81	3.884
232.99	3.886
233.17	3.888
233.35	3.89
233.53	3.892
233.71	3.894
233.89	3.896
234.06	3.898
234.24	3.9
234.42	3.903
234.6	3.904
234.78	3.906
234.96	3.908
235.14	3.911
235.32	3.914
235.5	3.917
235.68	3.92
235.86	3.922
236.04	3.924
236.22	3.927
236.4	3.931
236.58	3.933
236.76	3.936
236.94	3.939
237.12	3.942
237.3	3.945
237.48	3.947
237.66	3.95
237.84	3.953
238.02	3.955
238.2	3.958
238.38	3.961
238.56	3.964
238.74	3.969
238.92	3.971
239.1	3.975
239.28	3.978
239.46	3.982
239.63	3.985
239.81	3.99
239.99	3.993
240.17	3.997
240.35	4.002
240.53	4.005
240.71	4.011
240.89	4.014
241.07	4.018
241.25	4.022
241.43	4.024
241.61	4.028
241.79	4.031
241.97	4.034
242.15	4.037
242.33	4.039
242.51	4.04
242.69	4.041
242.87	4.041
243.05	4.041
243.23	4.041
243.41	4.04
243.59	4.04
243.77	4.039
243.95	4.038
244.13	4.037
244.31	4.036
244.49	4.035
244.67	4.033
244.85	4.032
245.03	4.03
245.2	4.028
245.38	4.026
245.56	4.024
245.74	4.022
245.92	4.019
246.1	4.017
246.28	4.015
246.46	4.012
246.64	4.01
246.82	4.009
247	4.007
247.18	4.005
247.36	4.003
247.54	4.002
247.72	4
247.9	3.999
248.08	3.997
248.26	3.996
248.44	3.995
248.62	3.994
248.8	3.993
248.98	3.993
249.16	3.992
249.34	3.991
249.52	3.99
249.7	3.99
249.88	3.989
250.06	3.989
250.24	3.989
250.42	3.989
250.6	3.989
250.77	3.989
250.95	3.989
251.13	3.99
251.31	3.99
251.49	3.991
251.67	3.993
251.85	3.994
252.03	3.995
252.21	3.996
252.39	3.997
252.57	3.999
252.75	4
252.93	4.002
253.11	4.004
253.29	4.006
253.47	4.008
253.65	4.008
253.83	4.008
254.01	4.006
254.19	4.004
254.37	4.003
254.55	4
254.73	3.996
254.91	3.992
255.09	3.987
255.27	3.981
255.45	3.974
255.63	3.967
255.81	3.96
255.99	3.953
256.16	3.943
256.34	3.928
256.52	3.918
256.7	3.904
256.88	3.889
257.06	3.87
257.24	3.854
257.42	3.837
257.6	3.819
257.78	3.802
257.96	3.791
258.14	3.776
258.32	3.761
258.5	3.745
258.68	3.729
258.86	3.717
259.04	3.697
259.22	3.68
259.4	3.664
259.58	3.646
259.76	3.634
259.94	3.614
260.12	3.596
260.3	3.582
260.48	3.564
260.66	3.548
260.84	3.531
261.02	3.513
261.2	3.482
261.38	3.453
261.56	3.428
261.73	3.414
261.91	3.401
262.09	3.385
262.27	3.374
262.45	3.36
262.63	3.347
262.81	3.331
262.99	3.315
263.17	3.3
263.35	3.281
263.53	3.267
263.71	3.251
263.89	3.231
264.07	3.211
264.25	3.19
264.43	3.173
264.61	3.158
264.79	3.131
264.97	3.115
265.15	3.095
265.33	3.078
265.51	3.052
265.69	3.033
265.87	3.008
266.05	2.991
266.23	2.969
266.41	2.95
266.59	2.936
266.77	2.916
266.95	2.905
267.13	2.895
267.3	2.878
267.48	2.867
267.66	2.855
267.84	2.849
