Uv/Vis Spectrum: Benzaldehyde, oxime
Formula: C7H7NO
CAS: 932-90-1
Melting point: 35
Boiling point: 104/ 6 mm
Instrument: Beckman DU
Origin: INSTITUTE OF ENERGY PROBLEMS OF CHEMICAL PHYSICS, RAS
Wavelength (nm)	Logarithm epsilon
202.12	4.602
202.55	4.584
202.97	4.566
203.39	4.548
203.82	4.53
204.24	4.512
204.67	4.494
205.09	4.476
205.52	4.458
205.94	4.422
206.36	4.386
206.79	4.368
207.21	4.349
207.64	4.331
208.06	4.313
208.48	4.313
208.91	4.313
209.33	4.295
209.76	4.295
210.18	4.277
210.61	4.277
211.03	4.259
211.45	4.259
211.88	4.241
212.3	4.223
212.73	4.205
213.15	4.187
213.58	4.169
214	4.169
214.42	4.151
214.85	4.133
215.27	4.115
215.7	4.097
216.12	4.06
216.55	4.042
216.97	4.024
217.39	3.988
217.82	3.952
218.24	3.916
218.67	3.88
219.09	3.844
219.52	3.807
219.94	3.771
220.36	3.735
220.79	3.699
221.21	3.663
221.64	3.645
222.06	3.627
222.48	3.609
222.91	3.591
223.33	3.591
223.76	3.591
224.18	3.591
224.61	3.591
225.03	3.591
225.45	3.591
225.88	3.609
226.3	3.609
226.73	3.627
227.15	3.645
227.58	3.645
228	3.663
228.42	3.681
228.85	3.699
229.27	3.699
229.7	3.717
230.12	3.735
230.55	3.753
230.97	3.753
231.39	3.771
231.82	3.771
232.24	3.807
232.67	3.825
233.09	3.844
233.52	3.844
233.94	3.862
234.36	3.88
234.79	3.88
235.21	3.898
235.64	3.898
236.06	3.916
236.48	3.934
236.91	3.934
237.33	3.952
237.76	3.952
238.18	3.97
238.61	3.97
239.03	3.988
239.45	3.988
239.88	4.006
240.3	4.006
240.73	4.024
241.15	4.024
241.58	4.042
242	4.042
242.42	4.078
242.85	4.078
243.27	4.097
243.7	4.097
244.12	4.115
244.55	4.115
244.97	4.115
245.39	4.115
245.82	4.133
246.24	4.133
246.67	4.133
247.09	4.151
247.52	4.151
247.94	4.151
248.36	4.151
248.79	4.169
249.21	4.169
249.64	4.169
250.06	4.169
250.48	4.169
250.91	4.169
251.33	4.169
251.76	4.169
252.18	4.169
252.61	4.169
253.03	4.169
253.45	4.169
253.88	4.169
254.3	4.169
254.73	4.169
255.15	4.169
255.58	4.169
256	4.169
256.42	4.169
256.85	4.169
257.27	4.151
257.7	4.151
258.12	4.151
258.55	4.133
258.97	4.133
259.39	4.133
259.82	4.115
260.24	4.115
260.67	4.115
261.09	4.115
261.52	4.097
261.94	4.097
262.36	4.078
262.79	4.078
263.21	4.06
263.64	4.06
264.06	4.042
264.48	4.042
264.91	4.024
265.33	4.006
265.76	4.006
266.18	3.988
266.61	3.97
267.03	3.97
267.45	3.952
267.88	3.934
268.3	3.916
268.73	3.898
269.15	3.898
269.58	3.88
270	3.862
270.42	3.844
270.85	3.825
271.27	3.807
271.7	3.789
272.12	3.771
272.55	3.753
272.97	3.735
273.39	3.717
273.82	3.681
274.24	3.663
274.67	3.645
275.09	3.609
275.52	3.591
275.94	3.554
276.36	3.536
276.79	3.5
277.21	3.482
277.64	3.446
278.06	3.428
278.48	3.392
278.91	3.374
279.33	3.356
279.76	3.338
280.18	3.338
280.61	3.32
281.03	3.301
281.45	3.301
281.88	3.283
282.3	3.283
282.73	3.283
283.15	3.283
283.58	3.265
284	3.265
284.42	3.247
284.85	3.229
285.27	3.229
285.7	3.211
286.55	3.193
286.97	3.175
287.39	3.139
287.82	3.103
288.24	3.03
288.67	2.994
289.09	2.958
289.52	2.94
289.94	2.958
290.36	2.958
290.79	2.958
291.21	2.976
291.64	2.994
292.06	3.012
292.48	3.012
292.91	3.012
293.33	3.012
293.76	2.994
294.18	2.976
294.61	2.94
295.03	2.868
295.45	2.795
295.88	2.651
296.3	2.543
296.73	2.452
297.15	2.398
297.58	2.308
298	2.217
298.42	2.127
298.85	1.982
299.27	1.892
299.7	1.784
300.12	1.729
300.55	1.675
300.97	1.621
301.39	1.567
302.24	1.386
302.67	1.35
303.09	1.296
303.52	1.26
303.94	1.205
304.36	1.151
304.79	1.115
305.21	1.061
305.64	1.007
306.06	0.952
306.48	0.916
306.91	0.862
307.33	0.808
307.76	0.754
308.18	0.717
308.61	0.663
309.03	0.609
309.45	0.555
309.88	0.501
310.3	0.465
311.58	0.302
312	0.266
312.42	0.212
312.85	0.175
313.27	0.139
313.7	0.085
314.55	-0.005
315.39	-0.096
317.09	-0.331
317.52	-0.367
318.36	-0.421
318.79	-0.475
319.21	-0.511
319.64	-0.565
320.06	-0.602
