Uv/Vis Spectrum: 1,2-Dimethyl-3-ethylbenzene
Formula: C10H14
CAS: 933-98-2
Melting point: - 49.5
Boiling point: 194
Instrument: unknown
Origin: INSTITUTE OF ENERGY PROBLEMS OF CHEMICAL PHYSICS, RAS
Wavelength (nm)	Logarithm epsilon
229.7	1.984
229.83	1.968
230	1.952
230.17	1.935
230.3	1.918
230.47	1.9
230.63	1.881
230.76	1.861
230.93	1.84
231.14	1.818
231.31	1.795
231.52	1.773
231.74	1.748
231.99	1.727
232.24	1.702
232.5	1.676
232.71	1.648
232.98	1.619
233.26	1.595
233.52	1.565
233.77	1.534
234.07	1.5
234.36	1.47
234.7	1.451
235.02	1.437
235.41	1.422
235.8	1.41
236.16	1.404
236.57	1.402
236.99	1.403
237.33	1.41
237.71	1.424
238.08	1.443
238.43	1.464
238.78	1.481
239.15	1.5
239.53	1.52
239.87	1.539
240.21	1.56
240.55	1.58
240.89	1.604
241.18	1.626
241.52	1.648
241.86	1.664
242.2	1.684
242.54	1.699
242.88	1.717
243.22	1.734
243.56	1.751
243.9	1.767
244.24	1.783
244.57	1.798
244.89	1.809
245.21	1.823
245.51	1.837
245.8	1.85
246.11	1.864
246.44	1.878
246.78	1.89
247.07	1.902
247.41	1.913
247.71	1.924
248.01	1.935
248.35	1.946
248.64	1.958
248.94	1.97
249.25	1.982
249.53	1.992
249.83	2.001
250.08	2.012
250.42	2.021
250.72	2.031
251.04	2.042
251.31	2.051
251.61	2.061
251.9	2.069
252.2	2.078
252.49	2.086
252.75	2.094
253.01	2.103
253.3	2.11
253.6	2.117
253.9	2.125
254.15	2.134
254.4	2.142
254.7	2.148
255	2.156
255.29	2.164
255.55	2.173
255.8	2.18
256.09	2.186
256.48	2.191
256.86	2.193
257.21	2.195
257.58	2.198
257.96	2.201
258.34	2.204
258.73	2.206
259.06	2.208
259.4	2.212
259.74	2.215
260.08	2.221
260.38	2.226
260.67	2.232
260.97	2.237
261.23	2.245
261.48	2.252
261.69	2.259
261.9	2.266
262.16	2.272
262.45	2.278
262.84	2.28
263.13	2.275
263.34	2.269
263.6	2.262
263.81	2.256
264.06	2.249
264.32	2.242
264.66	2.237
265	2.233
265.34	2.227
265.59	2.221
265.8	2.212
265.95	2.204
266.14	2.194
266.27	2.185
266.39	2.175
266.56	2.165
266.69	2.155
266.86	2.144
267.03	2.134
267.2	2.123
267.41	2.111
267.62	2.101
267.92	2.092
268.26	2.086
268.6	2.092
268.89	2.1
269.15	2.108
269.36	2.12
269.57	2.129
269.78	2.14
270.17	2.143
270.46	2.135
270.63	2.124
270.76	2.113
270.84	2.1
270.97	2.086
271.06	2.072
271.14	2.058
271.23	2.045
271.35	2.028
271.44	2.012
271.54	1.998
271.65	1.98
271.78	1.964
271.9	1.948
272.07	1.931
272.2	1.913
272.34	1.895
272.45	1.873
272.58	1.853
272.71	1.832
272.88	1.809
273.05	1.786
273.22	1.761
273.39	1.734
273.6	1.71
273.81	1.68
274.02	1.652
274.23	1.622
274.44	1.59
274.66	1.555
