Uv/Vis Spectrum: Benzene, 1-ethyl-3,5-dimethyl-
Formula: C10H14
CAS: 934-74-7
Boiling point: 183.6
Instrument: unknown
Origin: INSTITUTE OF ENERGY PROBLEMS OF CHEMICAL PHYSICS, RAS
Wavelength (nm)	Logarithm epsilon
233.18	1.904
233.26	1.883
233.39	1.863
233.52	1.84
233.64	1.816
233.77	1.79
233.9	1.762
234.03	1.736
234.15	1.708
234.32	1.679
234.45	1.647
234.66	1.612
234.83	1.575
235.04	1.539
235.27	1.504
235.49	1.465
235.82	1.428
236.19	1.397
236.57	1.382
236.95	1.374
237.36	1.375
237.75	1.379
238.09	1.387
238.47	1.397
238.89	1.408
239.26	1.421
239.58	1.432
239.95	1.45
240.3	1.465
240.68	1.485
241.02	1.501
241.36	1.518
241.74	1.534
242.08	1.55
242.42	1.57
242.75	1.589
243.09	1.603
243.43	1.621
243.77	1.638
244.11	1.655
244.45	1.667
244.83	1.684
245.13	1.701
245.47	1.717
245.76	1.733
246.1	1.746
246.44	1.762
246.78	1.775
247.12	1.79
247.46	1.804
247.8	1.819
248.14	1.832
248.47	1.846
248.81	1.858
249.15	1.871
249.45	1.883
249.79	1.893
250.12	1.904
250.38	1.915
250.72	1.926
251.06	1.937
251.36	1.95
251.65	1.96
251.95	1.97
252.25	1.979
252.54	1.991
252.84	2
253.09	2.011
253.31	2.025
253.56	2.035
253.77	2.049
253.98	2.061
254.24	2.072
254.49	2.083
254.75	2.094
255.04	2.101
255.38	2.108
255.76	2.112
256.14	2.117
256.54	2.119
256.82	2.124
257.08	2.132
257.29	2.141
257.54	2.149
257.8	2.157
258.09	2.163
258.39	2.169
258.77	2.172
259.15	2.168
259.53	2.167
259.92	2.169
260.25	2.174
260.51	2.182
260.76	2.19
261.02	2.198
261.27	2.206
261.48	2.214
261.78	2.221
262.12	2.225
262.5	2.226
262.88	2.225
263.23	2.226
263.52	2.233
263.71	2.242
263.81	2.251
263.92	2.26
264.03	2.269
264.15	2.278
264.29	2.286
264.41	2.294
264.53	2.301
264.61	2.307
264.71	2.311
264.79	2.314
264.86	2.315
264.91	2.316
264.96	2.316
265	2.316
265.04	2.317
265.08	2.317
265.13	2.316
265.24	2.315
265.34	2.312
265.47	2.306
265.59	2.297
265.72	2.288
265.83	2.278
265.97	2.267
266.1	2.259
266.23	2.251
266.36	2.243
266.45	2.239
266.61	2.235
266.74	2.235
266.86	2.235
266.99	2.236
267.12	2.238
267.25	2.24
267.37	2.242
267.5	2.243
267.63	2.242
267.75	2.24
267.88	2.236
268.01	2.231
268.14	2.224
268.26	2.215
268.39	2.208
268.52	2.199
268.64	2.192
268.77	2.183
268.9	2.176
269.03	2.166
269.15	2.158
269.28	2.15
269.41	2.141
269.53	2.133
269.66	2.126
269.79	2.118
269.92	2.112
270.04	2.107
270.17	2.105
270.3	2.105
270.42	2.11
270.55	2.118
270.68	2.132
270.81	2.146
270.93	2.164
271.06	2.18
271.19	2.199
271.34	2.218
271.53	2.235
271.7	2.248
271.82	2.254
271.95	2.256
272.08	2.253
272.2	2.245
272.32	2.237
272.44	2.228
272.55	2.22
272.71	2.204
272.84	2.186
272.97	2.164
273.09	2.146
273.22	2.128
273.35	2.112
273.47	2.097
273.6	2.082
273.73	2.063
273.86	2.047
273.98	2.03
274.11	2.013
274.24	1.996
274.36	1.979
274.49	1.964
274.62	1.95
274.75	1.935
274.87	1.918
275	1.904
275.13	1.883
275.25	1.868
275.38	1.853
275.51	1.835
275.64	1.819
275.76	1.804
275.89	1.79
276.02	1.775
276.14	1.759
276.27	1.743
276.4	1.726
276.53	1.708
276.65	1.69
276.78	1.675
276.91	1.659
277.03	1.638
277.16	1.621
277.29	1.599
277.42	1.585
277.54	1.57
277.67	1.545
277.8	1.523
277.92	1.506
278.05	1.489
278.18	1.465
278.31	1.445
278.42	1.423
278.56	1.397
278.7	1.37
278.81	1.35
278.92	1.326
279.05	1.3
279.2	1.269
279.31	1.245
279.45	1.217
279.56	1.192
279.7	1.158
279.81	1.128
279.96	1.089
280.05	1.056
280.21	1.007
280.31	0.977
280.47	0.928
280.57	0.9
280.68	0.875
280.8	0.843
280.98	0.804
281.09	0.773
281.22	0.732
281.36	0.678
281.48	0.629
281.61	0.583
281.7	0.553
