Uv/Vis Spectrum: Stannane, trimethylphenyl-
Formula: C9H14Sn
CAS: 934-56-5
Melting point: 203-208/ 760 mm
Instrument: Spektromom 201
Origin: INSTITUTE OF ENERGY PROBLEMS OF CHEMICAL PHYSICS, RAS
Wavelength (nm)	Logarithm epsilon
207.52	3.984
207.69	3.984
207.86	3.984
208.03	3.987
208.2	3.987
208.37	3.99
208.54	3.99
208.72	3.994
208.89	3.994
209.06	3.997
209.23	3.997
209.4	4.001
209.57	4.001
209.74	4.004
209.91	4.004
210.08	4.004
210.25	4.008
210.42	4.008
210.6	4.011
210.77	4.004
211.28	4.004
211.79	4.001
212.3	3.997
212.82	3.99
213.33	3.987
213.84	3.984
214.35	3.973
214.87	3.97
215.38	3.956
215.89	3.949
216.41	3.936
216.92	3.922
217.43	3.905
217.94	3.888
218.46	3.871
218.97	3.843
219.48	3.823
219.99	3.792
220.51	3.768
221.02	3.737
221.53	3.703
222.04	3.665
222.56	3.621
223.07	3.569
223.58	3.525
224.1	3.484
224.61	3.443
225.12	3.405
225.63	3.368
226.15	3.33
226.66	3.296
227.17	3.255
227.68	3.22
228.2	3.183
228.71	3.149
229.22	3.111
229.73	3.063
230.25	3.029
230.76	2.984
231.27	2.95
231.79	2.912
232.3	2.882
232.81	2.847
233.32	2.813
233.84	2.779
234.35	2.748
234.86	2.714
235.37	2.687
235.89	2.659
236.4	2.649
236.91	2.639
237.42	2.635
237.94	2.635
238.45	2.637
238.97	2.64
239.48	2.642
239.99	2.645
240.5	2.649
241.01	2.652
241.53	2.656
242.04	2.659
242.57	2.664
243.1	2.67
243.59	2.674
244.22	2.682
244.7	2.688
245.11	2.693
245.77	2.701
246.27	2.708
246.66	2.714
247.17	2.721
247.68	2.724
248.19	2.724
248.7	2.725
249.22	2.728
249.73	2.73
250.24	2.731
250.75	2.731
251.27	2.731
251.58	2.733
251.78	2.734
252.13	2.742
252.29	2.748
252.55	2.756
252.8	2.762
253	2.764
253.32	2.765
253.64	2.763
253.83	2.758
254.34	2.738
254.78	2.724
255.37	2.71
255.85	2.701
256.39	2.693
256.8	2.689
257.42	2.687
257.93	2.687
258.25	2.692
258.49	2.7
258.61	2.711
258.79	2.723
258.96	2.731
259.14	2.734
259.47	2.734
259.61	2.733
259.81	2.725
259.98	2.714
260.17	2.696
260.49	2.676
260.91	2.652
261.24	2.634
261.52	2.621
262.03	2.604
262.55	2.587
263.06	2.574
263.5	2.565
264.08	2.556
264.6	2.55
265.06	2.544
265.62	2.536
266.07	2.528
266.36	2.519
266.65	2.505
267.16	2.467
267.67	2.43
268.18	2.392
268.7	2.355
269.21	2.317
269.72	2.283
270.24	2.245
270.75	2.211
271.26	2.177
271.77	2.142
272.29	2.105
272.8	2.07
273.31	2.033
273.82	1.992
274.34	1.958
274.85	1.923
275.36	1.896
275.87	1.862
276.39	1.828
276.9	1.79
277.41	1.749
277.93	1.725
278.44	1.684
278.95	1.643
279.46	1.602
279.98	1.557
280.48	1.513
281.04	1.463
281.58	1.414
282.15	1.36
282.67	1.31
283.11	1.27
283.54	1.227
284.08	1.167
284.59	1.099
285.1	1.034
285.62	0.969
