Uv/Vis Spectrum: 1,2-Dimethyl-4-ethylbenzene
Formula: C10H14
CAS: 934-80-5
Boiling point: 189.5
Instrument: unknown
Origin: INSTITUTE OF ENERGY PROBLEMS OF CHEMICAL PHYSICS, RAS
Wavelength (nm)	Logarithm epsilon
231.66	2.155
231.87	2.129
232.11	2.097
232.32	2.069
232.51	2.044
232.72	2.013
232.93	1.984
233.14	1.954
233.35	1.924
233.57	1.895
233.78	1.863
233.94	1.84
234.2	1.812
234.38	1.795
234.63	1.78
234.84	1.764
235.05	1.751
235.21	1.744
235.48	1.735
235.69	1.728
235.87	1.723
236.11	1.718
236.33	1.71
236.54	1.707
236.75	1.703
236.96	1.7
237.18	1.7
237.39	1.7
237.6	1.7
237.81	1.7
238.03	1.7
238.24	1.7
238.45	1.703
238.68	1.707
238.9	1.71
239.09	1.714
239.3	1.718
239.51	1.721
239.73	1.725
239.94	1.728
240.13	1.733
240.36	1.74
240.57	1.748
240.79	1.755
241	1.764
241.21	1.771
241.42	1.777
241.63	1.783
241.85	1.792
242.06	1.798
242.27	1.807
242.48	1.812
242.72	1.822
242.91	1.829
243.12	1.84
243.33	1.845
243.55	1.855
243.76	1.863
243.97	1.873
244.17	1.881
244.41	1.892
244.61	1.899
244.82	1.906
245.03	1.913
245.24	1.922
245.46	1.931
245.67	1.941
245.88	1.95
246.09	1.96
246.31	1.968
246.52	1.974
246.73	1.984
246.94	1.993
247.15	2.002
247.37	2.01
247.58	2.02
247.79	2.027
248	2.037
248.22	2.047
248.43	2.059
248.64	2.067
248.85	2.075
249.07	2.084
249.28	2.093
249.49	2.102
249.7	2.11
249.91	2.119
250.13	2.126
250.34	2.134
250.55	2.142
250.76	2.15
250.98	2.158
251.19	2.167
251.4	2.174
251.61	2.181
251.83	2.189
252.04	2.197
252.25	2.204
252.46	2.212
252.67	2.22
252.89	2.227
253.1	2.235
253.31	2.242
253.52	2.25
253.74	2.257
253.95	2.267
254.16	2.274
254.37	2.281
254.59	2.288
254.8	2.295
255.01	2.305
255.22	2.31
255.43	2.318
255.65	2.326
255.86	2.331
256.07	2.338
256.28	2.344
256.5	2.352
256.71	2.359
256.92	2.365
257.13	2.372
257.35	2.379
257.56	2.386
257.77	2.392
257.98	2.398
258.19	2.406
258.41	2.414
258.62	2.42
258.83	2.427
259.04	2.433
259.26	2.44
259.47	2.446
259.68	2.452
259.89	2.458
260.11	2.464
260.32	2.47
260.53	2.474
260.74	2.479
260.95	2.483
261.17	2.486
261.38	2.489
261.59	2.492
261.8	2.493
262.02	2.496
262.23	2.497
262.44	2.499
262.65	2.5
262.86	2.502
263.08	2.503
263.29	2.505
263.5	2.508
263.71	2.511
263.93	2.515
264.14	2.52
264.35	2.526
264.56	2.533
264.78	2.542
264.99	2.563
265.2	2.58
265.41	2.595
265.62	2.61
265.84	2.621
266.05	2.63
266.26	2.636
266.47	2.641
266.69	2.642
266.9	2.641
267.11	2.636
267.32	2.63
267.54	2.624
267.75	2.617
267.96	2.611
268.17	2.606
268.38	2.6
268.6	2.595
268.81	2.591
269.02	2.587
269.23	2.584
269.45	2.58
269.66	2.577
269.87	2.574
270.08	2.572
270.3	2.566
270.51	2.561
270.72	2.554
270.93	2.545
271.14	2.537
271.36	2.528
271.57	2.518
271.78	2.509
271.99	2.5
272.21	2.488
272.42	2.478
272.63	2.474
272.84	2.474
273.06	2.478
273.22	2.484
273.35	2.492
273.42	2.498
273.48	2.507
273.52	2.513
273.61	2.528
273.69	2.543
273.78	2.557
273.86	2.569
273.95	2.579
274.03	2.589
274.11	2.597
274.2	2.605
274.29	2.612
274.37	2.617
274.46	2.622
274.54	2.626
274.63	2.63
274.71	2.633
274.8	2.635
274.88	2.636
274.97	2.637
275.05	2.637
275.14	2.637
275.22	2.637
275.31	2.635
275.39	2.632
275.48	2.628
275.56	2.624
275.65	2.618
275.73	2.612
275.82	2.606
275.9	2.6
275.99	2.593
276.07	2.584
276.16	2.575
276.24	2.566
276.33	2.556
276.41	2.545
276.5	2.536
276.58	2.526
276.66	2.516
276.76	2.503
276.88	2.485
277.09	2.448
277.3	2.406
277.51	2.361
277.73	2.31
277.94	2.253
278.15	2.198
278.36	2.15
278.58	2.096
278.79	2.052
279	2.013
279.21	1.972
279.42	1.931
279.64	1.89
279.85	1.853
280.06	1.809
280.27	1.78
280.49	1.738
