Uv/Vis Spectrum: 2H-Azonin-2-one, octahydro-
Formula: C8H15NO
CAS: 935-30-8
Instrument: Unicam Spectrophotometer
Origin: INSTITUTE OF ENERGY PROBLEMS OF CHEMICAL PHYSICS, RAS
Wavelength (nm)	Logarithm epsilon
218.18	3
218.23	2.998
218.29	2.996
218.34	2.994
218.39	2.992
218.72	2.972
219.04	2.951
219.36	2.932
219.69	2.91
220.01	2.89
220.33	2.868
220.98	2.826
221.31	2.806
221.63	2.782
221.95	2.766
222.28	2.745
222.6	2.718
222.92	2.702
223.25	2.684
223.89	2.642
224.22	2.62
224.86	2.576
225.19	2.557
225.51	2.533
226.16	2.486
226.48	2.47
226.81	2.446
227.78	2.381
228.1	2.355
228.42	2.335
228.75	2.311
229.07	2.283
229.72	2.242
230.04	2.213
230.37	2.193
230.69	2.165
231.66	2.075
231.98	2.054
232.27	2.027
232.63	2.007
232.95	1.982
233.28	1.948
234.02	1.888
234.57	1.837
234.88	1.813
235.22	1.779
235.5	1.756
235.87	1.724
236.87	1.623
237.48	1.571
237.84	1.529
238.13	1.498
238.46	1.457
238.89	1.412
239.51	1.334
240.07	1.27
240.4	1.235
240.72	1.197
241.1	1.132
241.42	1.061
242.02	0.93
242.56	0.806
243.02	0.71
243.31	0.633
