Uv/Vis Spectrum: Phenol, 2,3,5,6-tetrachloro-
Formula: C6H2Cl4O
CAS: 935-95-5
Melting point: 115
Instrument: Unicam Spectrophotometer
Origin: INSTITUTE OF ENERGY PROBLEMS OF CHEMICAL PHYSICS, RAS
Wavelength (nm)	Logarithm epsilon
226.48	4.252
226.81	4.248
226.98	4.241
227.14	4.234
227.31	4.226
227.8	4.217
227.97	4.208
228.3	4.2
228.63	4.192
228.96	4.185
229.29	4.176
229.78	4.169
230.28	4.159
230.77	4.149
231.27	4.14
231.76	4.132
232.26	4.122
233.08	4.114
233.74	4.105
234.4	4.097
235.06	4.088
235.88	4.08
236.54	4.071
237.53	4.063
238.69	4.052
240.01	4.046
241.16	4.038
241.99	4.028
242.81	4.016
243.47	4.004
244.46	3.991
244.95	3.979
245.61	3.968
246.27	3.956
247.1	3.94
247.92	3.926
248.58	3.913
249.24	3.899
249.74	3.885
250.4	3.871
251.22	3.856
251.72	3.838
252.54	3.824
253.2	3.808
253.69	3.79
254.52	3.774
255.34	3.758
256.17	3.741
257.16	3.715
257.98	3.691
258.97	3.674
259.96	3.653
260.95	3.631
261.94	3.612
262.93	3.591
263.92	3.566
265.07	3.543
266.39	3.523
267.71	3.502
269.03	3.485
270.51	3.471
272	3.466
273.48	3.466
275.13	3.466
277.11	3.466
278.76	3.466
280.24	3.476
281.73	3.485
283.05	3.502
284.2	3.523
285.19	3.547
286.18	3.573
287.5	3.605
288.65	3.631
289.64	3.653
290.8	3.68
291.95	3.697
292.78	3.715
293.93	3.736
294.92	3.753
295.91	3.77
297.06	3.788
298.05	3.803
299.04	3.82
300.03	3.834
301.19	3.846
302.34	3.86
303.5	3.871
304.82	3.878
306.3	3.882
307.78	3.878
308.61	3.865
309.6	3.848
310.26	3.832
310.75	3.816
311.58	3.797
312.24	3.779
312.73	3.76
313.39	3.741
313.89	3.718
314.71	3.694
315.2	3.665
315.7	3.638
316.52	3.608
317.18	3.581
317.84	3.551
318.5	3.519
319.33	3.489
320.15	3.457
321.14	3.422
322.46	3.384
323.61	3.355
324.77	3.324
326.09	3.304
327.41	3.269
328.73	3.238
330.38	3.214
331.86	3.197
