Uv/Vis Spectrum: 1-Propanone, 1-phenyl-
Formula: C9H10O
CAS: 93-55-0
Melting point: 18.6
Boiling point: 217.5
Instrument: unknown
Origin: INSTITUTE OF ENERGY PROBLEMS OF CHEMICAL PHYSICS, RAS
Wavelength (nm)	Logarithm epsilon
254.32	3.637
255.4	3.551
256.47	3.466
257.28	3.38
258.9	3.305
259.98	3.22
261.87	3.07
263.22	2.995
264.57	2.921
266.73	2.878
270.23	2.899
272.39	2.942
275.36	2.974
277.79	2.985
280.22	2.974
282.64	2.942
285.07	2.91
286.69	2.846
289.66	2.728
291.01	2.653
292.36	2.557
293.44	2.472
294.78	2.397
296.67	2.269
298.02	2.194
299.37	2.108
300.72	2.034
302.34	1.969
304.5	1.884
306.65	1.83
308.81	1.798
311.24	1.766
313.94	1.766
316.37	1.756
318.8	1.734
321.49	1.702
323.92	1.67
326.89	1.617
329.32	1.585
333.09	1.51
335.25	1.467
337.95	1.392
341.19	1.285
343.08	1.232
344.69	1.168
347.66	1.05
349.28	0.986
350.63	0.911
352.25	0.847
354.68	0.73
356.57	0.644
357.91	0.569
360.61	0.43
361.69	0.345
363.04	0.259
364.39	0.174
365.74	0.099
