Uv/Vis Spectrum: 2,4,5-Trichlorophenoxyacetic acid
Formula: C8H5Cl3O3
CAS: 93-76-5
Melting point: 152-155
Instrument: unknown
Origin: INSTITUTE OF ENERGY PROBLEMS OF CHEMICAL PHYSICS, RAS
Wavelength (nm)	Logarithm epsilon
204.09	3.976
205.11	3.996
206.3	4.013
207.49	4.033
208.86	4.047
210.22	4.061
211.58	4.074
213.12	4.078
214.65	4.074
216.01	4.061
217.2	4.044
218.4	4.023
219.42	3.999
220.61	3.979
221.8	3.959
222.82	3.935
224.02	3.914
225.38	3.897
226.74	3.884
228.28	3.88
229.81	3.877
231.34	3.877
232.87	3.88
234.41	3.884
235.94	3.894
237.47	3.897
238.84	3.908
240.37	3.914
241.73	3.928
243.26	3.938
244.63	3.948
245.99	3.962
247.35	3.979
248.72	3.996
250.08	4.01
251.27	4.03
252.46	4.047
253.83	4.061
255.19	4.071
256.55	4.088
257.91	4.098
259.45	4.108
260.81	4.119
262.34	4.125
263.87	4.132
265.41	4.132
266.94	4.129
268.47	4.119
269.84	4.108
271.2	4.098
272.56	4.081
273.92	4.064
275.29	4.05
276.65	4.033
278.01	4.016
279.38	4.003
280.74	3.986
282.27	3.976
283.63	3.965
285	3.952
286.36	3.938
287.89	3.931
289.25	3.918
290.79	3.908
292.32	3.901
293.85	3.891
295.39	3.887
296.92	3.884
298.45	3.874
299.99	3.87
301.52	3.87
303.05	3.86
304.58	3.857
306.12	3.85
307.65	3.839
309.18	3.829
310.72	3.819
312.08	3.809
313.61	3.802
314.97	3.788
316.34	3.775
317.87	3.768
319.23	3.754
320.6	3.741
321.96	3.727
323.49	3.717
324.85	3.703
326.22	3.69
327.58	3.676
329.11	3.666
330.65	3.656
332.01	3.642
333.54	3.639
334.9	3.625
336.44	3.622
337.97	3.618
339.5	3.608
341.04	3.605
342.57	3.605
344.1	3.598
345.63	3.591
347.17	3.584
348.7	3.574
350.23	3.567
351.77	3.557
353.3	3.55
354.83	3.54
356.2	3.523
357.56	3.509
358.92	3.499
360.28	3.486
361.65	3.472
363.01	3.455
364.37	3.438
365.73	3.421
367.1	3.404
368.46	3.387
369.82	3.37
371.18	3.353
372.55	3.336
373.74	3.319
375.1	3.302
376.46	3.285
377.66	3.264
379.02	3.247
380.21	3.227
381.57	3.21
382.6	3.189
383.62	3.169
384.98	3.152
386.17	3.135
387.37	3.118
388.9	3.108
390.26	3.091
391.62	3.077
392.99	3.064
394.52	3.057
395.88	3.043
397.42	3.04
398.95	3.03
400.48	3.026
402.01	3.026
403.55	3.026
405.08	3.023
406.61	3.023
408.15	3.013
409.68	3.009
411.21	3.009
412.75	3.002
414.28	2.992
415.81	2.989
417.34	2.978
418.88	2.972
420.41	2.961
421.94	2.958
423.31	2.944
424.67	2.934
426.03	2.924
427.39	2.91
428.76	2.897
430.12	2.887
431.48	2.87
432.84	2.853
434.21	2.839
435.57	2.822
436.93	2.805
438.13	2.784
439.49	2.767
440.68	2.747
441.87	2.727
442.89	2.706
443.92	2.682
444.94	2.662
446.13	2.642
447.15	2.621
448.17	2.597
449.2	2.573
450.39	2.553
451.24	2.526
452.26	2.505
453.28	2.485
454.14	2.461
454.99	2.437
456.01	2.417
456.86	2.393
457.71	2.369
458.57	2.345
459.42	2.322
460.27	2.298
461.12	2.271
461.97	2.247
462.82	2.22
463.68	2.196
464.53	2.168
465.38	2.145
466.23	2.117
466.91	2.09
467.93	2.066
468.44	2.039
469.47	2.015
470.15	1.988
471	1.961
471.85	1.934
472.7	1.906
473.38	1.879
