Uv/Vis Spectrum: Benzoic acid, ethyl ester
Formula: C9H10O2
CAS: 93-89-0
Melting point: -34
Boiling point: 212
Instrument: Beckman DU
Origin: INSTITUTE OF ENERGY PROBLEMS OF CHEMICAL PHYSICS, RAS
Wavelength (nm)	Logarithm epsilon
241.858	3.32356
242.216	3.299
242.891	3.25162
243.996	3.17366
243.996	3.17366
244.087	3.16349
244.186	3.15286
244.298	3.14097
244.43	3.12701
244.588	3.11017
244.778	3.08966
245.008	3.06465
245.282	3.03436
245.607	2.99797
245.99	2.95468
246.437	2.90368
246.954	2.84416
246.954	2.84416
247.269	2.81366
247.584	2.78337
247.899	2.75319
247.899	2.75319
248.145	2.72303
248.391	2.69286
248.636	2.6627
248.636	2.6627
248.884	2.64088
249.132	2.61907
249.38	2.59725
249.38	2.59725
249.673	2.58195
249.92	2.56594
250.332	2.53549
250.332	2.53549
250.582	2.52202
250.832	2.50855
251.082	2.49507
251.082	2.49507
251.188	2.48593
251.284	2.47699
251.375	2.46815
253.091	2.42532
253.159	2.42209
253.221	2.41896
253.273	2.41603
253.273	2.41603
254.137	2.39834
254.991	2.38076
255.84	2.36338
255.84	2.36338
256.092	2.3615
256.345	2.35962
256.598	2.35774
256.598	2.35774
257.174	2.35768
257.75	2.35762
258.325	2.35757
258.325	2.35757
258.902	2.36213
259.479	2.36659
260.056	2.37084
260.056	2.37084
260.565	2.37865
261.073	2.38636
261.582	2.39387
261.582	2.39387
262.136	2.4048
262.686	2.41553
263.225	2.42616
263.225	2.42616
263.679	2.43827
264.154	2.44976
265.055	2.47049
265.055	2.47049
265.603	2.47878
266.141	2.48707
266.674	2.49536
266.674	2.49536
267.084	2.50232
267.597	2.50959
268.315	2.52023
268.315	2.52023
268.698	2.52512
269.133	2.53176
269.656	2.53911
269.656	2.53911
270.457	2.55165
271.12	2.56142
271.875	2.57366
271.875	2.57366
272.007	2.57443
272.128	2.57501
272.244	2.57547
272.244	2.57547
273.281	2.58937
273.856	2.5964
274.462	2.60261
274.462	2.60261
274.715	2.60258
274.968	2.60256
275.221	2.60253
275.221	2.60253
275.513	2.59708
275.794	2.59183
276.07	2.58668
276.07	2.58668
276.425	2.57414
276.674	2.56667
277.028	2.54996
277.028	2.54996
277.029	2.55241
277.029	2.55507
277.03	2.55784
277.03	2.55784
277.437	2.54018
277.633	2.53475
277.783	2.52902
277.783	2.52902
278.103	2.52249
278.424	2.51597
278.745	2.50944
278.745	2.50944
279.105	2.50962
279.476	2.51102
280.174	2.51486
280.174	2.51486
280.591	2.52269
281.007	2.53041
281.424	2.53792
281.424	2.53792
281.769	2.5388
282.115	2.53957
282.461	2.54014
282.461	2.54014
282.569	2.53873
282.666	2.53733
282.759	2.53593
282.759	2.53593
283.24	2.52332
283.513	2.51535
283.811	2.50523
283.811	2.50523
283.939	2.49225
284.057	2.47937
284.17	2.46671
284.17	2.46671
284.233	2.44863
284.292	2.43067
284.341	2.4129
284.341	2.4129
284.535	2.38833
284.719	2.36386
284.898	2.33959
284.898	2.33959
285.049	2.31064
285.199	2.2817
285.348	2.25276
285.495	2.22383
285.642	2.19491
285.788	2.16601
285.934	2.13712
286.079	2.10825
286.224	2.0794
286.369	2.05058
286.369	2.05058
286.517	2.03652
286.707	2.00958
287.103	1.94665
287.103	1.94665
287.214	1.92391
287.317	1.9029
287.415	1.88322
287.511	1.86449
287.605	1.84633
287.7	1.82834
287.797	1.81013
287.899	1.79133
288.008	1.77154
288.125	1.75037
288.251	1.72744
288.39	1.70236
288.543	1.67474
288.711	1.6442
288.897	1.61034
289.103	1.57278
289.329	1.53114
289.58	1.48502
289.855	1.43403
289.855	1.43403
289.923	1.43126
289.985	1.42859
290.037	1.42613
290.331	1.40477
290.395	1.38543
290.453	1.3663
290.501	1.34726
