Uv/Vis Spectrum: Phenpromethamine
Formula: C10H15N
CAS: 93-88-9
Melting point: 168-173
Instrument: Unicam SP 700
Origin: INSTITUTE OF ENERGY PROBLEMS OF CHEMICAL PHYSICS, RAS
Wavelength (nm)	Logarithm epsilon
200	4
209.47	3.925
210.65	3.908
211.66	3.884
212.34	3.857
213.18	3.829
213.69	3.802
214.2	3.775
214.71	3.744
215.04	3.713
215.38	3.682
215.72	3.652
216.23	3.621
216.57	3.59
216.73	3.56
217.07	3.529
218.93	3.297
219.1	3.286
219.27	3.28
219.61	3.208
219.95	3.163
220.28	3.112
220.62	3.027
220.96	2.941
221.3	2.846
221.64	2.685
221.97	2.515
222.31	2.344
222.65	2.173
222.99	2.002
223.33	1.832
223.67	1.746
224	1.661
224.34	1.576
224.68	1.5
225.02	1.46
225.36	1.401
225.69	1.371
226.03	1.33
226.37	1.306
226.71	1.279
227.05	1.255
227.38	1.238
227.72	1.227
228.06	1.22
228.4	1.217
228.74	1.217
229.07	1.217
229.41	1.224
229.75	1.238
230.09	1.255
230.43	1.279
230.76	1.296
231.1	1.313
231.44	1.337
231.78	1.347
232.12	1.364
233.13	1.398
233.81	1.436
234.15	1.453
234.48	1.473
234.82	1.49
235.16	1.511
235.5	1.528
235.84	1.545
236.17	1.559
236.51	1.572
236.85	1.579
237.19	1.593
237.53	1.596
237.86	1.603
238.2	1.606
238.54	1.613
238.88	1.62
239.22	1.63
239.55	1.647
239.89	1.664
240.23	1.685
240.57	1.709
240.91	1.726
241.24	1.746
241.58	1.774
241.92	1.787
242.26	1.801
242.6	1.811
242.94	1.815
243.27	1.818
243.61	1.825
243.95	1.828
244.29	1.845
244.63	1.869
244.96	1.88
245.3	1.9
245.64	1.92
245.98	1.944
246.32	1.958
246.65	1.972
246.99	1.989
247.33	1.999
247.67	2.006
248.01	2.009
248.34	2.009
248.68	2.002
249.02	2.002
249.36	2.006
249.7	2.026
250.03	2.04
250.37	2.057
250.71	2.088
251.05	2.115
251.39	2.132
251.73	2.142
252.06	2.156
252.4	2.166
252.74	2.177
253.08	2.18
253.42	2.18
253.75	2.173
254.09	2.163
254.43	2.156
254.77	2.139
255.11	2.129
255.44	2.132
255.78	2.136
256.12	2.139
256.46	2.16
256.8	2.18
257.13	2.207
257.47	2.221
257.81	2.235
258.15	2.248
258.49	2.259
258.82	2.255
259.16	2.238
259.5	2.218
259.84	2.2
260.18	2.19
260.52	2.17
260.85	2.153
261.19	2.132
261.53	2.112
261.87	2.105
262.21	2.084
262.54	2.078
262.88	2.078
263.22	2.084
263.56	2.112
263.9	2.136
264.23	2.146
264.57	2.149
264.91	2.108
265.25	2.043
265.59	1.968
265.92	1.938
266.26	1.927
266.6	1.914
266.94	1.91
267.28	1.907
267.61	1.91
267.95	1.91
268.29	1.907
268.63	1.845
268.97	1.74
269.3	1.681
269.64	1.596
269.98	1.511
270.32	1.436
270.66	1.398
271	1.292
271.33	1.214
271.67	1.162
272.01	1.084
272.35	0.999
272.69	0.934
273.02	0.9
273.36	0.831
273.7	0.746
274.04	0.695
274.38	0.681
