Uv/Vis Spectrum: 1-Phenyl-1,3-butanedione
Formula: C10H10O2
CAS: 93-91-4
Melting point: 58
Instrument: Beckman DU
Origin: INSTITUTE OF ENERGY PROBLEMS OF CHEMICAL PHYSICS, RAS
Wavelength (nm)	Logarithm epsilon
215.49	4.003
216.67	3.983
217.68	3.962
218.69	3.939
219.64	3.914
220.54	3.891
221.38	3.867
222.22	3.84
223.4	3.823
224.75	3.805
226.26	3.802
227.78	3.799
229.29	3.788
230.81	3.785
232.32	3.785
233.84	3.788
235.19	3.799
236.7	3.805
238.05	3.819
239.39	3.836
240.74	3.85
241.92	3.867
243.27	3.877
244.61	3.887
246.13	3.891
247.64	3.891
249.16	3.884
250.51	3.87
251.85	3.857
253.2	3.84
254.21	3.819
255.22	3.799
256.23	3.775
257.24	3.751
258.25	3.727
259.43	3.706
260.94	3.7
262.29	3.686
263.8	3.686
265.32	3.696
266.67	3.713
267.68	3.734
268.69	3.754
269.7	3.778
270.54	3.805
271.38	3.833
272.39	3.857
273.23	3.884
274.24	3.908
275.08	3.935
276.09	3.956
277.1	3.98
277.95	4.003
278.96	4.024
279.97	4.048
280.98	4.068
282.15	4.089
283.33	4.109
284.34	4.133
285.52	4.15
286.7	4.167
288.05	4.184
289.39	4.198
290.74	4.212
292.26	4.218
293.6	4.232
294.95	4.242
296.3	4.253
297.64	4.266
299.16	4.276
300.67	4.283
302.19	4.294
303.7	4.297
305.22	4.294
306.73	4.287
308.25	4.283
309.76	4.28
311.28	4.27
312.79	4.259
314.31	4.249
315.66	4.235
317.17	4.225
318.52	4.215
319.87	4.201
321.21	4.184
322.56	4.167
323.91	4.15
324.92	4.13
325.93	4.109
327.1	4.089
328.11	4.068
329.12	4.048
329.97	4.024
330.98	4
331.82	3.973
332.66	3.949
333.5	3.922
334.18	3.894
335.19	3.87
335.69	3.843
336.53	3.819
337.37	3.792
338.22	3.768
339.06	3.741
339.9	3.717
340.74	3.689
341.41	3.662
342.26	3.638
342.76	3.611
343.43	3.584
343.94	3.556
344.61	3.529
345.29	3.502
345.79	3.471
346.13	3.44
346.8	3.413
347.14	3.382
347.64	3.355
347.98	3.324
348.32	3.294
348.82	3.266
349.16	3.235
349.49	3.205
349.83	3.174
350.17	3.143
350.51	3.113
350.84	3.082
351.18	3.051
351.52	3.02
351.85	2.99
352.19	2.959
352.36	2.928
352.69	2.898
353.03	2.867
353.2	2.836
353.54	2.805
353.7	2.775
354.04	2.744
354.21	2.713
354.55	2.683
354.71	2.652
355.05	2.621
355.39	2.59
355.56	2.56
355.72	2.529
356.06	2.498
356.4	2.468
356.57	2.437
356.9	2.406
357.07	2.375
357.24	2.345
357.58	2.314
357.74	2.283
358.08	2.253
358.25	2.222
358.59	2.191
358.92	2.16
359.09	2.13
