Uv/Vis Spectrum: Naphthalene, 2-ethyl-
Formula: C12H12
CAS: 939-27-5
Melting point: -7.4
Boiling point: 258
Instrument: n.i.g.
Origin: INSTITUTE OF ENERGY PROBLEMS OF CHEMICAL PHYSICS, RAS
Wavelength (nm)	Logarithm epsilon
325.945	1.03378
325.663	1.06856
325.291	1.12767
325.074	1.17316
324.813	1.22503
324.482	1.29455
324.282	1.33945
323.967	1.40163
323.798	1.43291
323.641	1.48423
323.55	1.5099
323.39	1.52637
323.295	1.53479
322.963	1.6079
322.845	1.71322
322.817	1.72486
322.798	1.64469
322.778	1.73659
322.733	1.74851
322.458	1.75538
322.306	1.75899
322.047	1.8201
321.963	1.85243
321.775	1.85528
321.67	1.85688
321.609	1.88857
321.567	1.9046
321.261	1.96062
320.953	2.01677
320.641	2.07298
320.321	2.12924
320.295	2.14087
320.211	2.16413
320.124	2.16546
319.92	2.16858
319.9	2.18994
319.83	2.23312
319.756	2.24397
319.585	2.26603
319.346	2.31919
319.079	2.37588
318.86	2.41364
318.837	2.43009
318.76	2.46335
318.674	2.46469
318.472	2.46781
318.447	2.48145
318.367	2.50911
318.292	2.51673
317.698	2.53406
317.142	2.52574
316.877	2.52176
316.413	2.47052
315.857	2.39766
315.754	2.39689
315.57	2.3957
315.463	2.3789
315.279	2.34565
315.091	2.33605
314.717	2.31687
314.621	2.31609
314.047	2.31698
313.97	2.31821
313.92	2.319
313.574	2.3399
313.402	2.35035
313.258	2.37774
313.172	2.39167
312.838	2.42779
312.671	2.44586
312.413	2.45273
312.271	2.45634
311.858	2.48808
311.641	2.50414
311.486	2.50977
311.394	2.51259
311.321	2.51914
310.341	2.5213
310.089	2.51881
309.909	2.51123
309.55	2.49605
309.369	2.48487
309.03	2.46287
308.853	2.4573
308.498	2.44652
307.853	2.44514
307.337	2.44671
307.257	2.44794
307.069	2.45076
306.976	2.45449
306.714	2.47166
306.646	2.48261
306.489	2.50497
306.411	2.509
306.228	2.51743
306.111	2.52629
305.878	2.54435
305.798	2.54568
305.613	2.5488
305.585	2.55562
305.503	2.56926
305.142	2.59549
304.548	2.63395
304.47	2.63677
304.288	2.64241
304.217	2.64644
304.054	2.65487
303.976	2.65689
303.793	2.66093
303.721	2.66174
303.554	2.66337
303.169	2.66103
302.926	2.65558
302.805	2.65308
302.454	2.62389
302.279	2.60948
302.101	2.58866
302.022	2.57826
301.367	2.53068
300.984	2.50588
300.817	2.5003
300.248	2.49559
299.923	2.50126
299.76	2.50409
299.692	2.50933
299.648	2.51212
299.485	2.51497
299.394	2.51658
299.19	2.56792
299.088	2.59359
298.95	2.60724
298.867	2.61407
298.725	2.65016
298.643	2.66821
298.501	2.67637
298.418	2.68068
298.129	2.72512
297.975	2.75571
297.921	2.78457
297.884	2.79901
297.723	2.80186
297.632	2.80346
297.473	2.83802
297.319	2.85963
296.877	2.9038
296.644	2.92588
296.497	2.95088
296.414	2.9636
296.273	2.97016
296.191	2.97366
296.054	2.98612
295.973	2.99254
295.817	3.0007
295.729	3.00501
295.595	3.02148
295.515	3.02989
294.407	3.11854
294.149	3.13836
294.011	3.14491
293.93	3.14841
293.492	3.18056
293.26	3.19663
292.26	3.25159
291.919	3.27142
291.765	3.27558
291.678	3.27788
291.544	3.28753
291.465	3.29235
290.963	3.31162
290.795	3.31933
290.642	3.32348
290.556	3.32578
290.342	3.33666
290.236	3.34227
290.084	3.34643
289.998	3.34873
289.934	3.35435
289.893	3.35717
289.757	3.3612
289.677	3.36322
289.459	3.37448
289.337	3.38011
289.036	3.3867
288.89	3.39864
288.887	3.39302
288.885	3.39022
288.453	3.40685
288.228	3.4196
288.225	3.41399
288.224	3.41118
287.929	3.42648
287.78	3.4301
287.445	3.44195
287.124	3.45107
286.825	3.45365
286.675	3.45516
286.542	3.45801
286.464	3.45961
286.332	3.46486
286.255	3.46767
286.036	3.47053
285.916	3.47214
284.813	3.47356
284.265	3.47445
283.834	3.46771
283.608	3.46416
283.458	3.45858
283.373	3.45579
282.946	3.45026
282.722	3.44749
282.657	3.44498
282.615	3.44351
281.407	3.44252
280.795	3.44185
280.124	3.45778
279.945	3.46286
279.886	3.4697
279.848	3.4733
279.445	3.49384
279.233	3.50429
279.026	3.50994
278.912	3.51277
278.855	3.5224
278.818	3.52722
278.693	3.53137
278.619	3.53367
278.56	3.53891
278.522	3.5417
278.135	3.55478
278.006	3.55864
277.73	3.57114
277.593	3.57756
277.114	3.59411
276.864	3.60256
276.74	3.60511
276.667	3.60661
276.544	3.61224
276.471	3.61506
275.797	3.62894
275.45	3.63611
275.05	3.63741
274.839	3.63824
274.635	3.63546
274.522	3.63389
273.987	3.62317
273.712	3.61763
273.299	3.6121
273.084	3.60934
272.959	3.60375
272.886	3.60096
272.553	3.5945
272.378	3.59105
272.047	3.5883
271.874	3.58674
271.594	3.57911
271.368	3.57442
271.04	3.57197
270.868	3.57052
270.214	3.57066
269.877	3.57073
269.556	3.57332
269.387	3.57484
268.62	3.59023
268.23	3.59793
266.999	3.59942
266.388	3.60033
265.44	3.59151
265.149	3.58818
264.438	3.57711
264.284	3.57394
264.028	3.57147
263.901	3.57002
263.784	3.56591
263.716	3.56364
263.529	3.56116
263.425	3.5597
262.975	3.55051
262.77	3.54742
262.404	3.54468
262.211	3.54313
261.957	3.53506
261.83	3.53079
261.714	3.52269
261.646	3.51841
261.461	3.51593
261.359	3.51447
261.171	3.50329
261.067	3.4977
260.764	3.49655
260.605	3.4958
260.549	3.4902
260.513	3.4874
259.988	3.47657
259.784	3.47314
259.659	3.47195
259.589	3.47118
259.476	3.46559
259.41	3.4628
259.299	3.46031
259.233	3.45884
258.631	3.45084
258.32	3.44662
256.922	3.41236
256.228	3.395
255.694	3.38551
255.421	3.38076
255.073	3.37271
254.889	3.36846
254.301	3.35871
254.09	3.35422
253.87	3.35145
253.752	3.34989
253.578	3.34593
253.482	3.34395
253.246	3.34118
253.129	3.33962
253.022	3.33564
252.959	3.33365
252.619	3.32812
252.44	3.32536
252.321	3.32016
252.254	3.31739
252.037	3.31462
251.921	3.31306
251.573	3.31062
251.391	3.30918
251.109	3.30364
250.96	3.30087
250.91	3.29835
250.877	3.29688
250.313	3.29141
250.023	3.28867
249.691	3.28314
249.516	3.28038
249.466	3.27787
249.433	3.27639
248.902	3.27195
248.59	3.27019
248.539	3.26367
248.506	3.26019
248.115	3.25868
247.911	3.25793
247.648	3.25239
247.508	3.24961
246.959	3.24453
246.677	3.24181
246.39	3.23627
246.247	3.2335
245.71	3.23111
245.442	3.2297
244.956	3.22261
244.373	3.21554
243.84	3.21286
243.565	3.21134
243.348	3.20887
243.239	3.20742
242.822	3.20471
242.607	3.20317
242.233	3.19805
242.038	3.19531
240.837	3.19562
240.235	3.19578
239.875	3.1971
239.696	3.19793
239.443	3.20322
239.31	3.20605
239.206	3.21021
239.148	3.21251
238.896	3.2154
238.763	3.21702
238.557	3.2223
238.454	3.22512
238.264	3.23331
238.163	3.23762
237.958	3.24329
237.856	3.24613
237.765	3.25176
237.712	3.25458
237.561	3.25714
237.478	3.25865
237.276	3.26993
237.176	3.27557
236.769	3.28471
236.654	3.28814
236.553	3.29339
236.496	3.2962
236.152	3.30873
235.98	3.31518
235.89	3.32081
235.838	3.32363
235.737	3.32619
235.68	3.32769
235.171	3.35024
234.956	3.36116
234.765	3.37303
234.66	3.37767
234.605	3.3833
234.577	3.38611
234.289	3.39433
