Uv/Vis Spectrum: Resorcinol dibenzoate
Formula: C20H14O4
CAS: 94-01-9
Melting point: 115-116
Instrument: Beckman DU
Origin: INSTITUTE OF ENERGY PROBLEMS OF CHEMICAL PHYSICS, RAS
Wavelength (nm)	Logarithm epsilon
210.07	3.796
210.57	3.826
211.07	3.857
211.58	3.884
212.25	3.911
213.09	3.938
213.93	3.962
215.1	3.982
216.28	3.999
217.11	4.026
218.12	4.05
218.79	4.077
219.46	4.104
219.97	4.132
220.81	4.159
221.64	4.182
222.48	4.206
223.49	4.23
224.33	4.257
225.17	4.281
226.01	4.305
227.01	4.328
227.85	4.352
229.03	4.369
230.2	4.386
231.54	4.4
232.89	4.41
234.4	4.41
235.91	4.403
237.25	4.389
238.59	4.372
239.77	4.352
240.6	4.328
241.61	4.305
242.45	4.277
243.12	4.25
243.79	4.223
244.3	4.196
244.8	4.169
245.3	4.142
245.81	4.115
246.48	4.088
247.15	4.06
247.65	4.033
248.49	4.006
248.99	3.979
249.66	3.952
250.5	3.928
251.34	3.901
252.18	3.877
253.02	3.85
253.86	3.826
254.87	3.803
255.7	3.779
256.71	3.755
257.72	3.735
258.72	3.714
259.73	3.694
260.91	3.674
262.08	3.657
263.42	3.64
264.77	3.623
266.11	3.606
267.45	3.592
268.79	3.575
270.13	3.558
271.48	3.541
272.82	3.524
274.16	3.507
275.34	3.487
276.34	3.467
277.35	3.446
278.36	3.426
279.03	3.399
279.7	3.372
280.2	3.345
280.7	3.318
281.88	3.297
283.22	3.28
284.4	3.263
285.23	3.239
286.07	3.216
286.58	3.189
287.08	3.158
287.25	3.128
287.58	3.097
287.75	3.066
288.09	3.036
288.33	2.988
288.66	2.934
289.1	2.853
289.59	2.739
290.33	2.6
291.28	2.459
292.11	2.32
293.29	2.188
294.46	2.073
295.64	1.95
296.81	1.818
297.99	1.686
299.16	1.53
300.34	1.36
301.51	1.187
