Uv/Vis Spectrum: Ethanone, 1-(1-Naphthalenyl)-
Formula: C12H10O
CAS: 941-98-0
Melting point: 296-298
Instrument: unknown
Origin: INSTITUTE OF ENERGY PROBLEMS OF CHEMICAL PHYSICS, RAS
Wavelength (nm)	Logarithm epsilon
286.76	3.686
287.29	3.697
287.81	3.707
288.6	3.715
289.26	3.726
290.05	3.733
290.84	3.743
291.76	3.749
292.69	3.756
293.74	3.76
294.79	3.764
295.98	3.764
297.16	3.761
298.21	3.757
299	3.749
299.79	3.741
300.45	3.732
301.11	3.723
301.64	3.712
302.03	3.701
302.43	3.69
302.82	3.68
303.09	3.668
303.48	3.657
303.61	3.645
304.01	3.635
304.4	3.623
304.8	3.613
305.32	3.602
306.11	3.593
306.9	3.585
307.69	3.576
308.61	3.569
309.54	3.563
310.59	3.556
311.64	3.55
312.56	3.542
313.62	3.536
314.67	3.53
315.72	3.523
316.64	3.517
317.43	3.509
318.36	3.501
319.01	3.49
319.8	3.483
320.46	3.473
321.12	3.464
321.65	3.454
322.3	3.444
322.7	3.434
323.36	3.423
323.88	3.413
324.41	3.402
324.94	3.392
325.33	3.381
325.86	3.371
326.25	3.36
326.65	3.35
327.18	3.339
327.57	3.328
327.97	3.316
328.36	3.305
328.76	3.295
329.15	3.284
329.54	3.274
329.94	3.262
330.33	3.251
330.73	3.241
331.12	3.229
331.52	3.217
331.91	3.205
332.18	3.194
332.57	3.183
332.7	3.171
333.1	3.161
333.36	3.149
333.63	3.137
333.76	3.125
334.15	3.115
334.42	3.103
334.68	3.091
