Uv/Vis Spectrum: N-Phenylmaleimide
Formula: C10H7NO2
CAS: 941-69-5
Melting point: 89-91
Instrument: Unicam SP 800
Origin: INSTITUTE OF ENERGY PROBLEMS OF CHEMICAL PHYSICS, RAS
Wavelength (nm)	Logarithm epsilon
212.58	4.178
214.11	4.182
215.64	4.182
217.17	4.178
218.7	4.178
220.23	4.175
221.58	4.161
222.94	4.148
224.3	4.131
225.49	4.114
226.51	4.093
227.36	4.069
228.21	4.045
229.06	4.021
229.91	3.994
230.42	3.967
230.93	3.94
231.61	3.912
232.12	3.885
232.63	3.858
233.14	3.831
233.65	3.8
234.16	3.769
234.16	3.759
234.33	3.738
234.5	3.728
234.67	3.708
234.84	3.698
235.18	3.667
235.52	3.636
235.86	3.605
236.2	3.575
236.54	3.544
236.71	3.513
237.05	3.483
237.56	3.455
237.9	3.425
238.24	3.394
238.75	3.363
239.09	3.333
239.6	3.302
239.77	3.271
240.28	3.241
240.62	3.21
241.13	3.183
241.47	3.152
241.98	3.125
242.49	3.097
243	3.07
243.51	3.043
244.19	3.016
244.87	2.988
245.55	2.961
246.4	2.934
247.08	2.907
248.1	2.883
248.95	2.859
250.14	2.838
251.16	2.814
252.35	2.794
253.54	2.777
254.9	2.763
256.26	2.75
257.79	2.746
259.32	2.739
260.85	2.733
262.21	2.722
263.57	2.709
264.92	2.695
266.28	2.678
267.64	2.661
269	2.651
270.36	2.641
271.72	2.627
273.08	2.617
274.61	2.61
276.14	2.61
277.67	2.613
279.2	2.62
280.73	2.627
282.09	2.637
283.62	2.641
285.15	2.647
286.68	2.651
288.21	2.654
289.74	2.664
291.27	2.668
292.8	2.671
294.33	2.675
295.86	2.678
297.39	2.682
298.92	2.682
300.45	2.685
301.98	2.685
303.51	2.685
305.04	2.685
306.57	2.685
308.09	2.678
309.62	2.678
311.15	2.675
312.68	2.668
314.21	2.664
315.74	2.661
317.27	2.654
318.8	2.644
320.33	2.641
321.69	2.627
323.22	2.617
324.75	2.61
326.11	2.6
327.64	2.589
329	2.576
330.36	2.562
331.89	2.552
333.25	2.538
334.78	2.531
336.14	2.518
337.5	2.504
338.86	2.494
340.22	2.48
341.58	2.463
342.94	2.45
344.3	2.436
345.83	2.426
347.19	2.412
348.55	2.395
349.91	2.378
351.26	2.361
352.62	2.344
353.98	2.327
355.34	2.313
356.7	2.3
358.06	2.283
359.42	2.269
360.78	2.252
362.14	2.235
363.33	2.218
364.69	2.201
365.88	2.184
367.24	2.167
368.6	2.15
369.79	2.129
371.15	2.112
372.51	2.095
373.7	2.078
374.89	2.058
376.08	2.041
377.27	2.023
378.46	2.006
379.65	1.989
380.84	1.969
382.03	1.952
383.22	1.931
384.41	1.914
385.43	1.894
386.45	1.873
387.64	1.853
388.66	1.833
389.68	1.812
390.87	1.792
392.06	1.771
393.08	1.751
394.26	1.73
395.28	1.706
396.47	1.686
397.32	1.662
398.51	1.642
399.53	1.618
400.72	1.597
401.74	1.577
402.76	1.553
403.78	1.532
404.8	1.512
405.82	1.492
406.67	1.468
407.69	1.447
408.54	1.423
409.56	1.403
410.41	1.379
411.43	1.359
412.45	1.338
413.47	1.314
414.32	1.29
415.34	1.27
416.19	1.246
417.21	1.222
418.06	1.198
418.91	1.174
419.76	1.151
420.61	1.127
