Uv/Vis Spectrum: 1,2,3,4-Tetrahydrocarbazole
Formula: C12H13N
CAS: 942-01-8
Melting point: 120
Boiling point: 327.5
Instrument: n.i.g.
Origin: INSTITUTE OF ENERGY PROBLEMS OF CHEMICAL PHYSICS, RAS
Wavelength (nm)	Logarithm epsilon
318.939	1.47817
318.47	1.49094
318.047	1.51578
317.612	1.56625
317.137	1.59788
316.707	1.64157
316.267	1.7109
315.792	1.74855
315.376	1.77339
314.952	1.81784
314.475	1.86831
314.056	1.90597
313.635	1.94966
313.166	1.99335
312.75	2.03101
312.336	2.06867
311.87	2.11311
311.449	2.16962
311.032	2.2201
310.567	2.26982
310.153	2.3203
309.742	2.36399
309.284	2.40843
308.876	2.45212
308.469	2.49657
308.015	2.54025
307.604	2.59676
307.2	2.64121
306.747	2.69093
306.342	2.74141
305.942	2.7851
305.495	2.82954
305.096	2.87323
304.705	2.90486
304.306	2.95534
303.864	2.99902
303.473	3.03668
303.077	3.08716
302.641	3.12482
302.259	3.14966
301.875	3.18128
301.445	3.2129
301.061	3.25056
300.685	3.26937
300.257	3.30702
299.872	3.35072
299.497	3.37555
299.083	3.38832
298.709	3.41316
298.343	3.42594
297.932	3.43871
297.558	3.47033
297.183	3.50799
296.77	3.53283
296.406	3.55163
296.042	3.57044
295.635	3.58924
295.275	3.60202
294.92	3.608
294.513	3.63284
294.159	3.63958
293.803	3.6516
293.408	3.65834
293.057	3.66432
292.704	3.6771
292.311	3.68308
291.963	3.68907
291.612	3.70184
291.265	3.70783
290.529	3.72734
290.184	3.73332
289.796	3.74609
287.326	3.80232
286.615	3.80826
286.279	3.81425
285.573	3.82094
284.911	3.82688
283.879	3.84559
282.86	3.85148
282.17	3.85817
281.163	3.86406
280.482	3.87
276.903	3.86949
275.942	3.85049
275.291	3.84436
274.984	3.84432
274.337	3.83819
274.035	3.83136
273.733	3.82528
272.795	3.80628
272.458	3.8002
271.858	3.80011
271.524	3.79327
271.228	3.7872
270.932	3.78112
270.307	3.7682
270.011	3.76816
269.681	3.76207
268.809	3.7363
268.191	3.73017
267.902	3.72409
267.578	3.71725
267.29	3.71118
267.003	3.70434
266.681	3.69826
266.395	3.69218
266.111	3.68535
265.79	3.67927
265.506	3.67319
265.224	3.66636
264.905	3.66027
264.623	3.6542
263.747	3.6352
263.465	3.63516
262.875	3.61621
262.598	3.60938
262.286	3.60329
261.426	3.57827
258.915	3.50244
258.613	3.4956
258.074	3.48948
257.775	3.47661
256.118	3.43259
255.854	3.42575
255.591	3.41968
255.294	3.41963
255.032	3.41355
254.771	3.40672
254.22	3.38777
251.806	3.33079
251.55	3.33074
250.506	3.29964
249.969	3.29275
249.718	3.28668
248.933	3.2805
247.622	3.28026
247.093	3.2862
246.598	3.29214
245.826	3.30482
245.549	3.3108
245.056	3.32956
244.78	3.3363
244.534	3.34832
244.288	3.3611
244.013	3.37386
243.766	3.39267
243.524	3.39866
243.248	3.41746
243.005	3.43023
242.76	3.44904
242.488	3.46181
242.243	3.48665
241.998	3.51149
241.757	3.52426
241.487	3.53703
241.244	3.56187
241.003	3.58068
240.733	3.59948
240.493	3.61829
240.251	3.64313
239.981	3.66872
239.741	3.69355
239.497	3.73121
239.231	3.75001
238.99	3.78164
238.752	3.80648
238.485	3.83207
238.247	3.85691
238.009	3.88854
237.745	3.90734
237.267	3.98266
237.005	4.00146
236.771	4.0263
236.54	4.03907
236.271	4.08954
236.038	4.11438
235.808	4.13319
235.547	4.15803
234.831	4.21444
234.601	4.24003
234.375	4.25281
234.121	4.26482
233.894	4.28363
233.445	4.30918
233.193	4.32119
232.748	4.33995
232.498	4.35272
231.809	4.37747
231.588	4.39024
230.907	4.40292
230.686	4.42173
230.013	4.42762
229.77	4.4336
229.342	4.4403
228.885	4.45905
228.222	4.46494
228.009	4.47093
227.351	4.47758
226.254	4.4894
223.689	4.49563
223.059	4.4887
222.232	4.48248
221.61	4.4763
221.413	4.46947
220.993	4.46334
220.575	4.45721
220.38	4.45038
219.965	4.43822
219.769	4.43818
219.357	4.42526
