Uv/Vis Spectrum: N-methyl-4-nitro-N-nitrosobenzenamine
Formula: C7H7N3O3
CAS: 943-41-9
Melting point: 100-101
Instrument: SF-4A
Origin: INSTITUTE OF ENERGY PROBLEMS OF CHEMICAL PHYSICS, RAS
Wavelength (nm)	Logarithm epsilon
266.401	3.753
267.401	3.763
268.401	3.773
269.401	3.783
270.401	3.794
271.401	3.805
272.401	3.816
273.401	3.828
274.401	3.839
275.401	3.851
276.401	3.863
277.401	3.876
278.401	3.888
279.401	3.9
280.401	3.913
281.401	3.926
282.401	3.938
283.401	3.951
284.401	3.964
285.401	3.977
286.401	3.99
287.401	4.003
288.401	4.015
289.401	4.028
290.401	4.041
291.401	4.053
292.401	4.066
293.401	4.078
294.227	4.087
295.227	4.1
296.227	4.113
297.227	4.124
298.227	4.136
299.227	4.146
300.227	4.156
301.227	4.166
302.227	4.174
303.227	4.182
304.227	4.189
305.227	4.196
306.227	4.202
307.227	4.207
308.227	4.211
309.227	4.215
310.227	4.218
311.227	4.22
312.227	4.222
313.227	4.222
314.227	4.222
315.227	4.222
316.227	4.22
317.227	4.218
318.227	4.215
319.227	4.211
320.227	4.206
321.227	4.201
322.227	4.195
323.227	4.188
324.227	4.181
325.227	4.173
326.227	4.165
327.227	4.156
328.227	4.146
329.227	4.136
330.227	4.126
331.227	4.115
332.227	4.104
333.227	4.092
334.227	4.081
335.227	4.069
335.965	4.059
336.965	4.05
337.965	4.04
338.965	4.029
339.965	4.018
340.965	4.007
341.965	3.995
342.965	3.983
343.965	3.97
344.965	3.958
345.965	3.945
346.965	3.932
347.965	3.919
348.965	3.906
349.965	3.893
350.965	3.879
351.965	3.866
352.965	3.852
353.965	3.837
354.965	3.823
355.965	3.807
356.965	3.791
357.965	3.774
358.965	3.757
359.965	3.738
360.207	3.731
361.207	3.713
362.207	3.695
363.207	3.677
364.207	3.659
365.207	3.641
366.207	3.623
367.207	3.606
368.207	3.588
369.207	3.571
370.207	3.554
371.207	3.537
372.207	3.52
373.207	3.503
374.207	3.487
375.207	3.47
376.207	3.454
377.207	3.438
378.207	3.422
379.207	3.407
380.207	3.392
381.207	3.377
382.207	3.363
383.207	3.35
384.207	3.337
385.207	3.326
386.207	3.315
387.207	3.305
388.207	3.296
389.207	3.288
390.207	3.282
391.207	3.276
392.207	3.272
393.207	3.27
394.207	3.268
395.207	3.267
396.207	3.267
397.207	3.269
