Uv/Vis Spectrum: 1,3-Benzodioxole, 5-(2-propenyl)-
Formula: C10H10O2
CAS: 94-59-7
Melting point: 231.5-232
Instrument: Unicam SP 800
Origin: INSTITUTE OF ENERGY PROBLEMS OF CHEMICAL PHYSICS, RAS
Wavelength (nm)	Logarithm epsilon
201.82	3.695
201.96	3.736
202.07	3.779
202.33	3.844
202.63	3.896
203.33	3.982
204.21	4.076
205.06	4.137
205.9	4.188
206.74	4.236
207.58	4.27
207.99	4.276
208.43	4.266
208.89	4.231
209.27	4.188
210.11	4.107
210.95	4.039
211.8	3.971
212.64	3.917
213.48	3.859
214.33	3.804
215.17	3.757
216.01	3.72
216.85	3.682
217.7	3.652
218.54	3.624
219.38	3.594
220.22	3.56
221.07	3.54
221.91	3.523
222.75	3.509
223.6	3.499
224.44	3.495
225.28	3.495
226.12	3.495
226.97	3.495
227.81	3.502
228.64	3.509
229.49	3.516
230.32	3.524
231.18	3.536
232.02	3.546
232.86	3.56
233.76	3.571
234.55	3.58
235.39	3.594
236.24	3.601
237.08	3.611
237.92	3.614
238.76	3.618
239.61	3.618
240.48	3.605
241.29	3.58
242.13	3.55
242.98	3.529
243.82	3.506
244.66	3.485
245.51	3.465
246.35	3.431
247.19	3.387
248.03	3.309
248.88	3.22
249.72	3.142
250.56	3.067
251.4	3.003
252.25	2.935
253.09	2.887
253.93	2.83
254.77	2.775
255.62	2.738
256.46	2.718
257.3	2.711
258.15	2.707
258.99	2.711
259.83	2.724
260.67	2.741
261.53	2.764
262.36	2.792
263.2	2.823
264.04	2.85
264.89	2.894
265.76	2.923
266.57	2.955
267.42	2.986
268.26	3.016
269.1	3.047
269.94	3.081
270.79	3.115
271.63	3.146
272.47	3.183
273.31	3.217
274.16	3.247
275	3.281
275.84	3.319
276.68	3.346
277.53	3.373
278.37	3.4
279.21	3.424
280.06	3.441
280.9	3.461
281.74	3.482
282.58	3.499
283.43	3.516
284.27	3.529
285.11	3.54
285.95	3.553
286.8	3.556
287.64	3.56
288.48	3.563
289.32	3.567
290.17	3.563
291.01	3.56
291.85	3.55
292.7	3.54
293.54	3.523
294.38	3.506
295.22	3.478
296.07	3.448
296.91	3.41
297.75	3.363
298.59	3.315
299.44	3.268
300.28	3.2
301.12	3.122
301.97	2.969
302.81	2.85
303.65	2.704
304.49	2.572
305.34	2.47
306.18	2.341
307.02	2.205
307.86	2.11
308.71	1.987
309.55	1.858
310.39	1.79
311.23	1.739
312.08	1.688
312.92	1.651
313.76	1.617
314.61	1.58
315.45	1.559
316.29	1.536
317.13	1.515
317.98	1.498
318.82	1.485
319.66	1.471
320.5	1.461
321.35	1.451
321.91	1.445
323.03	1.437
323.76	1.432
324.68	1.425
325.55	1.418
326.32	1.411
327.26	1.402
327.99	1.392
328.93	1.379
329.77	1.366
330.42	1.356
331.15	1.347
332.3	1.335
333.14	1.328
333.87	1.327
334.83	1.325
335.67	1.325
336.59	1.324
337.36	1.322
338.15	1.319
339.04	1.315
339.89	1.311
340.73	1.308
341.47	1.304
342.38	1.301
343.26	1.297
343.99	1.294
344.94	1.288
345.83	1.283
346.61	1.278
347.47	1.274
