Uv/Vis Spectrum: Diphenyl sulfoxide
Formula: C12H10OS
CAS: 945-51-7
Melting point: 70
Instrument: SF-4
Origin: INSTITUTE OF ENERGY PROBLEMS OF CHEMICAL PHYSICS, RAS
Wavelength (nm)	Logarithm epsilon
227.18	4.143
228.69	4.149
230.03	4.163
231.55	4.167
232.89	4.177
234.4	4.173
235.91	4.163
237.42	4.153
238.59	4.132
239.77	4.112
240.77	4.091
241.61	4.064
242.45	4.04
243.29	4.013
243.79	3.985
244.47	3.958
245.14	3.931
245.64	3.903
246.31	3.876
246.81	3.849
247.49	3.821
247.99	3.794
248.49	3.767
249.16	3.74
249.67	3.712
250.34	3.685
251.01	3.658
251.85	3.63
252.69	3.603
253.53	3.579
254.53	3.555
255.54	3.535
256.71	3.514
257.89	3.497
259.23	3.483
260.57	3.466
261.92	3.449
263.09	3.432
264.26	3.412
265.44	3.394
266.61	3.377
267.62	3.357
268.63	3.336
269.63	3.316
270.64	3.292
271.48	3.265
272.16	3.241
272.92	3.209
273.49	3.183
274	3.155
274.5	3.128
275	3.101
275.6	3.071
276.16	3.042
276.68	3.019
277.22	2.996
277.86	2.964
278.36	2.937
278.92	2.91
279.53	2.882
280.04	2.855
280.54	2.827
281.11	2.802
281.72	2.773
282.22	2.745
282.89	2.718
283.56	2.691
284.11	2.667
284.9	2.64
285.45	2.612
286.16	2.581
286.75	2.554
287.35	2.529
288.26	2.5
288.93	2.472
289.77	2.445
290.44	2.418
291.11	2.39
291.95	2.363
292.79	2.336
293.46	2.308
294.13	2.281
294.8	2.254
295.57	2.225
296.31	2.202
297.15	2.178
297.99	2.154
298.83	2.127
299.67	2.103
300.51	2.076
301.35	2.052
302.03	2.028
303.02	2.001
303.7	1.973
304.53	1.946
305.37	1.919
306.38	1.895
307.07	1.871
308.06	1.844
308.79	1.818
309.74	1.792
310.58	1.765
311.41	1.741
312.09	1.714
312.76	1.687
313.6	1.659
314.28	1.634
315.11	1.608
315.78	1.581
316.62	1.553
317.29	1.526
317.96	1.499
318.8	1.471
319.47	1.444
320.14	1.417
320.81	1.389
321.48	1.362
322.25	1.329
322.82	1.307
323.5	1.28
324.19	1.252
324.84	1.225
325.51	1.198
326.18	1.171
326.7	1.146
327.35	1.116
328.03	1.089
