Uv/Vis Spectrum: Benzaldehyde, 2-hydroxy-, oxime
Formula: C7H7NO2
CAS: 94-67-7
Melting point: 58
Instrument: Unicam SP 700
Origin: INSTITUTE OF ENERGY PROBLEMS OF CHEMICAL PHYSICS, RAS
Wavelength (nm)	Logarithm epsilon
209.32	4.245
210.17	4.272
211.02	4.296
212.03	4.316
213.22	4.333
214.49	4.347
216.1	4.354
217.63	4.354
219.1	4.342
220.34	4.323
221.53	4.303
222.71	4.282
223.58	4.259
224.58	4.235
225.25	4.207
226.1	4.18
226.95	4.153
227.63	4.126
228.31	4.099
228.98	4.071
229.49	4.044
230	4.017
230.51	3.99
231.02	3.962
231.53	3.935
231.86	3.905
232.37	3.877
232.71	3.847
233.22	3.82
233.73	3.789
234.24	3.762
234.75	3.735
235.25	3.707
235.93	3.68
236.78	3.653
237.8	3.632
239.15	3.619
240.34	3.636
241.19	3.663
242.03	3.687
242.88	3.714
243.73	3.738
244.58	3.762
245.42	3.786
246.27	3.809
247.29	3.833
248.14	3.86
248.98	3.884
249.83	3.908
250.85	3.932
251.86	3.956
252.88	3.979
253.9	4
254.92	4.02
255.93	4.041
257.12	4.058
258.64	4.065
260	4.048
260.51	4.02
261.36	3.993
262.2	3.969
263.39	3.952
264.92	3.956
266.27	3.969
267.12	3.945
267.29	3.915
267.46	3.884
267.74	3.84
268.22	3.764
269.15	3.647
270	3.544
271.02	3.401
272.03	3.241
273.05	3.105
274.07	2.959
275.08	2.884
276.1	2.864
277.12	2.847
278.14	2.85
279.15	2.877
280.17	2.918
281.19	2.959
282.2	2.99
283.22	3.027
284.24	3.061
285.25	3.092
286.27	3.122
287.29	3.136
288.31	3.17
289.32	3.197
290.34	3.224
291.36	3.255
292.37	3.282
293.39	3.303
294.41	3.33
295.42	3.354
296.44	3.377
297.46	3.401
298.47	3.422
299.49	3.442
300.51	3.459
301.53	3.476
302.54	3.493
303.56	3.507
304.58	3.52
305.59	3.527
306.61	3.537
307.63	3.544
308.64	3.544
309.66	3.544
310.68	3.544
311.69	3.544
312.71	3.537
313.73	3.527
314.75	3.524
315.76	3.507
316.78	3.49
317.8	3.476
318.81	3.456
319.83	3.428
320.85	3.398
321.86	3.364
322.88	3.33
323.9	3.282
324.92	3.241
325.93	3.187
326.95	3.132
328.95	2.987
329.94	2.896
331.02	2.799
332.03	2.687
333.05	2.571
334.07	2.459
335.08	2.36
336.1	2.238
337.12	2.139
338.14	1.996
339.15	1.86
340.17	1.707
341.19	1.585
342.2	1.455
343.22	1.309
344.24	1.193
345.25	1.044
