Uv/Vis Spectrum: 2,4-D Acid
Formula: C8H6Cl2O3
CAS: 94-75-7
Melting point: 137
Instrument: Unicam SP 800
Origin: INSTITUTE OF ENERGY PROBLEMS OF CHEMICAL PHYSICS, RAS
Wavelength (nm)	Logarithm epsilon
212.7	3.622
213.88	3.605
215.07	3.588
216.25	3.568
217.44	3.547
218.62	3.527
219.98	3.51
221.33	3.493
222.69	3.476
223.87	3.455
225.06	3.438
226.41	3.421
227.93	3.415
229.46	3.411
230.81	3.421
232	3.442
232.84	3.466
233.69	3.493
234.54	3.52
235.55	3.544
236.57	3.564
237.75	3.585
238.94	3.605
240.12	3.625
241.48	3.642
243	3.649
244.53	3.649
246.05	3.646
247.4	3.632
248.59	3.615
249.77	3.595
250.79	3.574
251.64	3.547
252.65	3.523
253.33	3.496
254.01	3.469
254.68	3.442
255.02	3.411
255.7	3.384
256.21	3.357
256.55	3.326
257.22	3.299
257.39	3.268
257.9	3.241
258.41	3.214
258.92	3.187
259.42	3.159
259.76	3.129
260.1	3.098
260.61	3.071
261.29	3.044
261.79	3.013
262.13	2.982
262.64	2.955
262.98	2.925
263.49	2.897
263.83	2.867
264.33	2.836
264.84	2.809
265.35	2.778
265.86	2.748
266.2	2.717
267.04	2.69
267.72	2.663
268.91	2.642
270.43	2.632
271.78	2.646
272.8	2.669
273.65	2.697
274.32	2.724
275.34	2.748
275.85	2.775
276.86	2.799
277.54	2.826
278.22	2.853
279.06	2.88
279.74	2.908
280.59	2.935
281.26	2.962
282.11	2.989
282.96	3.016
283.8	3.044
284.65	3.071
285.33	3.098
286.17	3.125
287.02	3.153
287.7	3.18
288.54	3.207
289.22	3.234
290.07	3.261
291.08	3.285
291.76	3.312
292.78	3.333
293.79	3.357
294.64	3.38
295.65	3.404
296.84	3.421
297.86	3.445
298.87	3.466
300.06	3.483
301.41	3.493
302.77	3.503
304.29	3.5
305.81	3.5
307.34	3.496
308.69	3.486
309.88	3.469
311.06	3.452
312.25	3.432
313.43	3.411
314.45	3.387
315.29	3.36
316.31	3.34
316.99	3.312
317.83	3.289
318.34	3.261
319.19	3.234
319.7	3.207
320.37	3.18
321.05	3.153
321.56	3.125
322.4	3.098
322.91	3.067
323.59	3.04
324.1	3.013
324.6	2.982
325.28	2.955
325.79	2.928
326.3	2.901
326.81	2.874
327.31	2.843
327.65	2.812
328.33	2.785
328.84	2.758
329.51	2.731
329.85	2.7
330.36	2.673
330.87	2.642
331.21	2.612
331.72	2.584
332.05	2.554
332.56	2.526
333.07	2.499
333.41	2.469
333.58	2.438
334.09	2.411
334.59	2.38
334.93	2.35
335.44	2.322
335.61	2.292
335.95	2.261
336.46	2.234
336.79	2.203
336.96	2.173
337.3	2.142
337.81	2.115
338.15	2.084
338.49	2.054
338.66	2.023
339.16	1.996
339.5	1.965
340.01	1.938
340.52	1.911
340.69	1.88
341.2	1.849
341.53	1.819
342.04	1.792
342.55	1.761
342.89	1.73
343.4	1.703
