Uv/Vis Spectrum: 9-Chlorophenanthrene
Formula: C14H9Cl
CAS: 947-72-8
Melting point: 52
Instrument: Unicam SP 500 or Hilger Ultrascan
Origin: INSTITUTE OF ENERGY PROBLEMS OF CHEMICAL PHYSICS, RAS
Wavelength (nm)	Logarithm epsilon
355.095	1.38095
354.677	1.52521
354.597	1.44254
354.405	1.5148
354.199	1.60588
353.867	1.8033
353.576	1.80535
353.245	2.00277
352.955	2.00482
352.617	2.19385
352.328	2.1959
351.826	2.21068
351.576	2.25318
351.321	2.25548
350.716	2.15784
350.073	2.0518
349.989	1.96277
349.732	1.9605
349.35	1.85877
348.532	1.83109
348.279	1.8311
347.504	1.84387
347.252	1.84388
346.782	1.91183
346.534	1.91414
346.068	1.98412
345.821	1.98617
345.364	2.0648
345.118	2.06685
344.671	2.15388
344.426	2.15618
343.983	2.24524
343.736	2.24526
343.262	2.2982
342.744	2.30052
342.255	2.30055
341.47	2.27287
341.191	2.2327
340.658	2.21136
340.385	2.17551
339.858	2.1585
339.591	2.12876
339.07	2.11607
338.309	2.09908
337.818	2.11615
337.582	2.1182
337.116	2.16072
336.881	2.16302
336.428	2.218
336.194	2.2203
335.766	2.303
335.534	2.30505
335.113	2.39437
334.879	2.39438
334.387	2.39848
334.153	2.39646
333.424	2.39219
333.152	2.34362
332.643	2.32228
331.903	2.2969
331.635	2.25036
331.136	2.23539
330.671	2.22499
329.961	2.22504
329.486	2.23143
329.261	2.23348
328.825	2.28438
328.601	2.28643
328.172	2.34395
327.949	2.346
327.493	2.36944
327.281	2.38217
327.019	2.36947
326.322	2.36519
326.09	2.35249
325.637	2.3398
325.377	2.32507
324.926	2.31238
324.658	2.2867
324.213	2.27834
323.959	2.26767
322.599	2.26777
322.179	2.28484
321.938	2.28689
321.525	2.31033
321.285	2.31263
320.881	2.34446
320.642	2.34651
320.241	2.38037
320.002	2.38268
319.6	2.41247
319.362	2.41452
317.62	2.41465
317.405	2.4083
316.957	2.40401
316.743	2.39767
316.295	2.39134
316.083	2.38703
315.635	2.37867
315.418	2.36597
314.769	2.36169
314.127	2.36403
313.499	2.38087
313.271	2.38317
312.88	2.4066
312.651	2.40662
312.263	2.43209
312.037	2.43414
311.657	2.468
311.431	2.47031
311.055	2.50646
310.853	2.50647
310.458	2.54873
310.259	2.55104
309.877	2.61034
309.679	2.61264
309.311	2.68898
309.114	2.69103
308.757	2.78035
308.56	2.7824
308.207	2.87578
308.011	2.87783
307.658	2.96918
307.463	2.97123
307.14	3.10277
306.945	3.10508
306.613	3.22161
306.419	3.22391
306.087	3.33841
305.893	3.34072
305.56	3.45318
305.368	3.45523
305.027	3.55497
304.834	3.55702
304.502	3.66745
304.311	3.6695
303.969	3.76517
303.779	3.76722
303.435	3.85857
303.245	3.86063
302.9	3.94765
302.711	3.9497
302.388	4.06649
302.199	4.06879
301.843	4.13674
301.465	4.1388
301.064	4.13884
300.66	4.13455
300.277	4.12389
300.047	4.09644
299.662	4.08172
299.442	4.06672
299.063	4.05836
298.846	4.0477
298.469	4.03933
298.274	4.02434
297.873	4.01394
297.671	3.98852
297.27	3.97355
297.068	3.94813
296.67	3.93544
296.471	3.91205
296.076	3.90166
295.882	3.88463
295.488	3.87398
295.3	3.8656
294.526	3.8593
293.963	3.85935
293.407	3.8678
293.23	3.8701
292.861	3.88692
292.684	3.88922
292.322	3.91469
292.146	3.91674
291.807	3.94221
291.609	3.94426
291.278	3.97838
291.08	3.98043
290.75	4.01455
290.553	4.0166
290.226	4.05275
290.03	4.0548
289.691	4.07187
289.147	4.07396
288.6	4.06764
288.225	4.05725
288.043	4.04226
287.668	4.02957
287.485	4.01254
287.112	3.99986
286.934	3.98944
286.565	3.98083
286.38	3.95973
286.014	3.9534
285.833	3.93638
285.297	3.92803
284.597	3.92377
283.883	3.92587
283.553	3.93455
283.365	3.93456
283.039	3.94731
282.853	3.94936
282.529	3.9644
282.179	3.96851
281.837	3.98558
281.673	3.98763
281.33	4.00038
281.166	4.0004
280.828	4.01951
280.665	4.02181
280.327	4.03863
280.164	4.03865
279.848	4.05572
279.666	4.05803
279.348	4.07078
279.165	4.07079
278.846	4.07922
278.161	4.08132
277.495	4.07731
277.152	4.07302
276.989	4.06668
276.646	4.06035
276.483	4.054
276.143	4.04971
275.821	4.04135
275.325	4.03911
274.186	4.03922
273.855	4.04154
273.531	4.05429
273.376	4.05634
273.058	4.07774
272.904	4.07979
272.591	4.10729
272.437	4.1096
272.126	4.13939
271.973	4.14144
271.179	4.16263
270.875	4.16699
270.704	4.16701
269.926	4.17141
269.304	4.17554
268.522	4.19063
268.372	4.19064
268.061	4.2034
267.911	4.20341
267.604	4.22252
267.455	4.22254
267.15	4.24165
267.001	4.24166
266.693	4.25441
266.546	4.25646
266.238	4.26718
266.09	4.26719
265.474	4.2843
265.02	4.29071
264.572	4.30551
264.283	4.30986
263.981	4.32261
263.837	4.32466
263.537	4.3397
263.393	4.33972
263.095	4.35654
262.952	4.35884
262.657	4.37795
262.514	4.38
262.219	4.39708
262.077	4.39913
261.784	4.42053
261.642	4.42054
261.351	4.44372
261.209	4.44374
260.92	4.46717
260.778	4.46719
260.494	4.49902
260.214	4.50337
259.928	4.52884
259.789	4.53089
259.505	4.55865
259.366	4.5607
259.085	4.59253
258.946	4.59483
258.666	4.62666
258.528	4.62871
258.249	4.66054
258.111	4.66259
257.833	4.69467
257.696	4.69672
257.417	4.72652
257.28	4.72856
256.998	4.74971
256.862	4.75201
256.577	4.76476
256.44	4.76478
255.166	4.77128
254.74	4.76497
254.314	4.75637
253.892	4.75235
253.469	4.74375
253.048	4.73744
252.78	4.7334
252.213	4.7271
252.078	4.72279
251.663	4.71852
251.119	4.71654
250.97	4.71224
250.428	4.70823
249.613	4.70604
248.948	4.70205
248.399	4.69779
247.741	4.69583
247.595	4.69152
247.067	4.68523
246.794	4.6789
246.267	4.66828
245.997	4.66399
245.599	4.65361
245.47	4.64497
245.072	4.6323
244.944	4.62392
244.675	4.6176
244.547	4.60922
244.279	4.6006
244.151	4.59222
243.884	4.5859
243.757	4.57726
243.49	4.5689
243.363	4.56052
243.098	4.5542
242.971	4.54556
242.707	4.5372
242.58	4.52882
242.318	4.52453
242.192	4.51615
241.93	4.50983
