Uv/Vis Spectrum: 9-Aminophenanthrene
Formula: C14H11N
CAS: 947-73-9
Melting point: 105
Instrument: Beckman Model DU
Origin: INSTITUTE OF ENERGY PROBLEMS OF CHEMICAL PHYSICS, RAS
Wavelength (nm)	Logarithm epsilon
210.67	4.192
211.52	4.168
212.71	4.148
214.06	4.135
215.42	4.121
216.44	4.101
217.62	4.08
218.98	4.09
219.99	4.111
221.18	4.131
222.37	4.148
223.72	4.165
225.25	4.172
226.77	4.165
228.13	4.152
229.65	4.141
231.18	4.138
232.7	4.135
234.23	4.138
235.75	4.141
237.28	4.152
238.46	4.168
239.65	4.185
240.66	4.206
241.51	4.233
242.36	4.26
243.21	4.284
244.05	4.311
244.9	4.338
245.75	4.362
246.59	4.389
247.44	4.413
248.46	4.437
249.31	4.464
250.66	4.474
252.02	4.46
253.37	4.447
254.73	4.433
255.91	4.413
257.27	4.396
258.46	4.379
259.64	4.362
260.83	4.345
262.01	4.325
263.03	4.304
264.39	4.287
265.4	4.267
266.59	4.247
267.77	4.23
268.79	4.209
269.98	4.189
270.99	4.168
272.01	4.148
273.03	4.128
274.21	4.107
275.23	4.087
276.25	4.063
277.43	4.043
278.45	4.019
279.47	3.999
280.48	3.975
281.5	3.955
282.51	3.931
283.53	3.907
284.55	3.883
285.56	3.863
286.58	3.843
287.6	3.819
288.45	3.795
289.46	3.775
290.48	3.751
291.5	3.727
292.34	3.704
293.36	3.68
294.71	3.663
296.24	3.663
297.43	3.683
298.61	3.7
299.8	3.717
300.98	3.734
302.34	3.744
303.69	3.761
305.05	3.771
306.41	3.785
307.93	3.795
309.46	3.802
310.98	3.809
312.5	3.812
314.03	3.816
315.55	3.812
317.08	3.809
318.6	3.799
319.96	3.785
321.49	3.775
323.01	3.765
324.37	3.748
325.55	3.731
326.91	3.714
328.09	3.697
329.28	3.676
330.47	3.656
331.65	3.639
332.67	3.619
333.85	3.598
335.04	3.581
336.06	3.558
337.07	3.537
338.09	3.517
339.11	3.493
340.12	3.473
341.14	3.449
342.16	3.425
343.17	3.401
344.36	3.381
345.38	3.361
346.39	3.34
347.41	3.317
348.43	3.296
349.61	3.276
350.63	3.256
351.64	3.235
352.83	3.215
354.02	3.194
355.2	3.174
356.56	3.157
357.74	3.137
359.1	3.12
360.29	3.103
361.64	3.086
363	3.069
364.35	3.052
365.54	3.032
366.89	3.015
368.25	2.998
369.6	2.981
370.96	2.964
371.98	2.943
373.16	2.923
374.35	2.903
375.37	2.882
376.38	2.862
377.57	2.841
378.58	2.821
379.43	2.797
380.45	2.774
381.63	2.753
382.65	2.729
383.5	2.706
384.35	2.682
385.19	2.658
386.04	2.634
386.89	2.611
387.56	2.584
388.41	2.556
389.09	2.529
389.94	2.505
390.61	2.478
391.46	2.455
391.97	2.427
392.65	2.4
393.33	2.373
394	2.346
394.68	2.319
395.36	2.292
395.87	2.264
396.54	2.237
397.05	2.21
397.56	2.183
398.24	2.156
398.75	2.129
399.26	2.102
399.76	2.074
400.44	2.047
400.78	2.017
401.29	1.99
401.97	1.962
402.48	1.932
402.81	1.901
403.49	1.874
404	1.844
404.51	1.816
405.19	1.789
405.36	1.759
406.03	1.732
406.54	1.701
406.71	1.671
407.39	1.643
407.56	1.613
408.24	1.586
408.57	1.555
409.08	1.528
409.76	1.501
410.1	1.47
410.61	1.443
411.12	1.416
411.62	1.385
412.3	1.358
412.98	1.331
413.32	1.301
414	1.273
414.67	1.246
415.35	1.219
416.03	1.192
416.54	1.165
417.22	1.138
418.06	1.111
418.74	1.083
419.59	1.06
420.44	1.032
421.28	1.009
422.13	0.982
422.98	0.958
423.99	0.934
425.01	0.914
426.03	0.893
427.04	0.873
428.23	0.856
429.25	0.836
430.43	0.815
431.79	0.802
433.14	0.785
434.5	0.768
435.85	0.754
437.38	0.744
438.73	0.73
440.26	0.72
441.61	0.703
443.14	0.693
444.66	0.683
446.19	0.673
447.71	0.666
449.24	0.656
450.76	0.646
452.29	0.639
453.64	0.629
455.17	0.618
456.69	0.612
458.22	0.605
459.74	0.595
461.27	0.591
462.79	0.581
464.32	0.571
465.84	0.564
467.37	0.557
468.89	0.551
470.42	0.544
471.94	0.537
473.47	0.527
474.99	0.52
476.52	0.51
478.04	0.503
479.57	0.496
481.09	0.489
482.62	0.483
484.14	0.476
485.67	0.466
487.19	0.456
488.72	0.449
490.24	0.442
491.77	0.435
493.29	0.428
494.82	0.425
496.34	0.418
497.7	0.405
499.22	0.401
500.75	0.394
502.27	0.388
503.8	0.381
505.32	0.374
506.85	0.364
508.37	0.357
509.9	0.35
511.42	0.344
512.95	0.337
514.47	0.33
516	0.323
517.52	0.316
519.05	0.31
520.57	0.299
522.1	0.293
523.62	0.282
525.15	0.276
526.67	0.272
528.2	0.265
529.72	0.259
531.25	0.248
532.77	0.242
534.3	0.235
535.82	0.228
537.35	0.221
538.87	0.215
540.4	0.208
541.92	0.201
543.45	0.191
544.97	0.184
546.5	0.177
