Uv/Vis Spectrum: 1H-Indole, 2-phenyl-
Formula: C14H11N
CAS: 948-65-2
Melting point: 84
Instrument: Unicam SP 700
Origin: INSTITUTE OF ENERGY PROBLEMS OF CHEMICAL PHYSICS, RAS
Wavelength (nm)	Logarithm epsilon
213.16	4.385
213.47	4.384
213.78	4.382
214.09	4.381
214.4	4.379
214.71	4.378
215.02	4.377
215.02	4.378
215.33	4.375
215.64	4.373
215.95	4.372
216.87	4.364
217.8	4.36
218.73	4.358
219.66	4.355
220.58	4.353
221.51	4.352
222.44	4.351
223.37	4.348
224.29	4.345
225.22	4.342
226.15	4.337
227.08	4.333
228.01	4.325
228.93	4.31
229.86	4.302
230.79	4.299
231.72	4.298
232.64	4.296
233.57	4.296
234.5	4.296
235.43	4.298
236.35	4.298
237.28	4.298
238.21	4.298
239.14	4.298
240.06	4.296
240.99	4.293
241.92	4.286
242.85	4.279
243.77	4.265
244.7	4.244
245.63	4.221
246.56	4.161
247.48	4.115
248.41	4.081
249.34	4.06
250.27	4.043
251.2	3.994
252.12	3.965
253.05	3.934
253.98	3.903
254.91	3.863
255.83	3.827
256.76	3.788
257.69	3.75
259.54	3.692
260.47	3.668
261.4	3.644
262.33	3.631
263.25	3.624
264.18	3.618
265.11	3.611
266.04	3.618
266.96	3.624
267.89	3.637
268.82	3.668
269.75	3.692
270.67	3.719
271.6	3.74
272.53	3.779
273.46	3.806
275.31	3.848
276.24	3.874
277.17	3.893
278.1	3.914
279.02	3.94
279.95	3.965
280.88	3.989
281.81	4.014
282.73	4.032
283.66	4.06
284.59	4.083
285.52	4.11
286.44	4.125
287.37	4.152
288.3	4.169
289.23	4.184
290.15	4.197
291.08	4.212
292.01	4.232
292.94	4.25
293.86	4.264
294.79	4.282
295.72	4.299
296.65	4.318
297.57	4.329
298.5	4.344
299.43	4.36
300.36	4.369
301.29	4.378
302.21	4.388
303.14	4.393
304.07	4.4
305	4.403
305.92	4.405
306.85	4.409
307.78	4.41
308.71	4.411
309.63	4.41
310.56	4.405
311.49	4.403
312.42	4.4
313.34	4.395
314.27	4.393
315.2	4.389
316.13	4.382
317.98	4.347
318.91	4.33
319.84	4.303
320.76	4.277
321.69	4.234
322.62	4.204
323.55	4.167
324.48	4.138
325.4	4.097
326.33	4.065
327.26	4.014
328.19	3.974
329.11	3.93
330.04	3.867
330.97	3.823
331.9	3.769
332.82	3.692
333.75	3.631
334.68	3.536
335.61	3.393
337.77	3.214
339.32	3.05
