Uv/Vis Spectrum: Phenol, 2,2'-[1,2-ethanediylbis(nitrilomethylidyne)]bis-
Formula: C16H16N2O2
CAS: 94-93-9
Melting point: 124-127
Instrument: Unicam SP 500
Origin: INSTITUTE OF ENERGY PROBLEMS OF CHEMICAL PHYSICS, RAS
Wavelength (nm)	Logarithm epsilon
205.61	4.361
206.56	4.391
207.23	4.415
207.98	4.44
208.83	4.463
209.85	4.487
210.7	4.511
211.72	4.532
212.74	4.552
213.93	4.573
215.12	4.59
216.48	4.6
217.84	4.61
219.34	4.617
220.89	4.61
222.26	4.599
223.61	4.583
224.97	4.566
225.99	4.546
227.01	4.522
227.86	4.498
228.71	4.474
229.56	4.446
230.41	4.419
231.09	4.392
231.77	4.364
232.45	4.337
232.96	4.31
233.64	4.282
234.15	4.255
234.65	4.228
235.33	4.2
236.18	4.173
237.37	4.156
238.9	4.156
240.09	4.173
241.28	4.19
242.3	4.211
243.49	4.231
244.68	4.252
245.87	4.269
247.23	4.286
248.58	4.299
249.94	4.317
251.3	4.327
252.83	4.334
254.36	4.34
255.89	4.344
257.42	4.344
258.97	4.342
260.48	4.334
261.83	4.32
263.19	4.303
264.38	4.286
265.4	4.265
266.25	4.241
267.1	4.217
267.78	4.19
268.29	4.163
268.97	4.135
269.65	4.108
270.16	4.081
270.67	4.053
271.01	4.023
271.52	3.995
272.03	3.965
272.37	3.934
272.88	3.903
273.39	3.876
273.9	3.848
274.58	3.821
275.42	3.797
276.44	3.777
277.46	3.756
278.82	3.746
280.18	3.729
281.54	3.715
282.9	3.698
284.26	3.684
285.62	3.671
286.98	3.657
288.34	3.64
289.69	3.626
291.22	3.623
292.75	3.619
294.28	3.623
295.64	3.637
296.83	3.657
297.85	3.678
298.87	3.701
299.89	3.722
301.08	3.742
302.1	3.763
303.22	3.777
304.57	3.797
305.83	3.81
307.19	3.828
308.55	3.845
310.08	3.855
311.44	3.865
312.8	3.879
314.33	3.886
315.86	3.893
317.38	3.893
318.91	3.889
320.44	3.886
321.97	3.879
323.33	3.865
324.69	3.852
326.05	3.835
327.41	3.818
328.77	3.801
329.79	3.777
330.8	3.756
331.82	3.736
332.67	3.712
333.69	3.688
334.54	3.664
335.39	3.64
336.24	3.616
337.09	3.592
337.94	3.565
338.79	3.537
339.3	3.51
339.98	3.483
340.83	3.459
341.34	3.431
342.19	3.408
342.7	3.38
343.21	3.353
343.88	3.326
344.56	3.298
345.24	3.271
345.92	3.244
346.77	3.216
347.28	3.189
348.13	3.165
348.81	3.138
349.66	3.114
350.51	3.086
351.53	3.062
352.38	3.038
353.4	3.018
354.42	2.997
355.44	2.974
356.63	2.956
357.98	2.939
359.34	2.922
360.71	2.912
362.4	2.905
363.93	2.905
365.46	2.909
366.86	2.914
368.35	2.922
369.71	2.936
371.06	2.95
372.42	2.96
373.78	2.974
375.14	2.987
376.5	3.001
377.86	3.018
379.22	3.032
380.58	3.042
381.94	3.056
383.3	3.066
384.82	3.076
386.18	3.086
387.54	3.1
389.07	3.107
390.43	3.117
391.79	3.127
393.32	3.134
394.85	3.144
396.38	3.151
397.91	3.155
399.26	3.165
400.79	3.168
402.32	3.168
403.85	3.168
405.38	3.168
406.91	3.168
408.44	3.168
409.97	3.158
411.5	3.155
413.02	3.144
414.55	3.138
415.91	3.127
417.44	3.12
418.8	3.107
420.16	3.09
421.52	3.076
422.88	3.059
424.24	3.045
425.43	3.028
426.61	3.008
427.97	2.991
429.16	2.974
430.35	2.953
431.2	2.926
432.39	2.905
433.24	2.881
434.26	2.861
435.28	2.84
436.13	2.816
437.15	2.792
438	2.769
438.85	2.745
439.69	2.721
440.54	2.693
441.39	2.669
442.24	2.642
443.09	2.618
443.94	2.591
444.62	2.563
445.47	2.54
446.15	2.512
446.83	2.485
447.51	2.458
448.19	2.43
449.04	2.403
449.55	2.376
450.23	2.348
451.08	2.321
451.42	2.29
452.1	2.263
452.61	2.235
453.11	2.208
453.62	2.181
454.47	2.153
454.98	2.123
455.49	2.095
456.17	2.068
456.68	2.041
457.19	2.013
457.7	1.983
458.21	1.952
458.55	1.921
459.06	1.894
459.57	1.866
460.08	1.836
460.59	1.808
460.93	1.777
461.44	1.747
461.95	1.719
462.29	1.689
462.8	1.658
463.31	1.627
463.65	1.596
464.33	1.569
464.67	1.538
465.18	1.511
465.69	1.484
466.03	1.453
466.54	1.426
467.04	1.398
467.55	1.371
468.06	1.34
468.57	1.309
469.08	1.282
469.59	1.251
470.1	1.22
470.44	1.19
470.95	1.162
471.46	1.135
471.97	1.108
472.48	1.08
472.99	1.05
473.5	1.022
474.01	0.995
474.52	0.968
475.03	0.94
475.54	0.913
476.05	0.886
476.56	0.855
477.07	0.827
477.58	0.8
478.09	0.769
478.6	0.742
479.11	0.715
479.79	0.687
480.3	0.657
480.8	0.629
481.14	0.599
481.65	0.568
482.16	0.54
482.67	0.513
483.18	0.482
483.69	0.455
