Uv/Vis Spectrum: Benzaldehyde, 2,4-dihydroxy-
Formula: C7H6O3
CAS: 95-01-2
Melting point: 135
Instrument: unknown
Origin: INSTITUTE OF ENERGY PROBLEMS OF CHEMICAL PHYSICS, RAS
Wavelength (nm)	Logarithm epsilon
202.03	3.966
202.2	3.969
202.36	3.969
202.53	3.973
202.7	3.976
202.87	3.98
203.04	3.98
203.21	3.983
203.38	3.986
204.05	3.997
205.07	4.017
206.08	4.034
207.09	4.051
208.11	4.068
209.12	4.082
210.14	4.092
211.15	4.099
212.16	4.109
213.18	4.116
214.19	4.116
215.2	4.112
216.22	4.102
217.23	4.088
218.24	4.071
219.26	4.051
220.27	4.02
221.28	3.993
222.3	3.956
223.31	3.935
224.32	3.918
225.34	3.915
226.35	3.918
227.36	3.925
228.38	3.939
229.39	3.956
230.41	3.976
231.42	3.986
232.43	3.99
233.45	3.976
234.46	3.952
235.47	3.922
236.49	3.888
237.5	3.84
238.51	3.789
239.53	3.735
240.54	3.66
241.55	3.565
242.57	3.442
243.58	3.34
244.59	3.255
245.61	3.187
246.62	3.157
247.64	3.15
248.65	3.153
249.66	3.174
250.68	3.204
251.69	3.238
252.7	3.279
253.72	3.333
254.73	3.378
255.74	3.425
256.76	3.483
257.77	3.527
258.78	3.578
259.8	3.623
260.81	3.67
261.82	3.708
262.84	3.752
263.85	3.789
264.86	3.823
265.88	3.857
266.89	3.895
267.91	3.925
268.92	3.959
269.93	3.99
270.95	4.02
271.96	4.048
272.97	4.071
273.99	4.088
275	4.105
276.01	4.119
277.03	4.129
278.04	4.146
279.05	4.16
280.07	4.156
281.08	4.15
282.09	4.139
283.11	4.136
284.12	4.122
285.14	4.116
286.15	4.102
287.16	4.088
288.18	4.071
289.19	4.054
290.2	4.037
291.22	4.017
292.23	4
293.24	3.976
294.26	3.956
295.27	3.942
296.28	3.925
297.3	3.908
298.31	3.891
299.32	3.881
300.34	3.874
301.35	3.867
302.36	3.861
303.38	3.85
304.39	3.847
305.41	3.847
306.42	3.844
307.43	3.844
308.45	3.844
309.46	3.844
310.47	3.844
311.49	3.844
312.5	3.844
313.51	3.844
314.53	3.844
315.54	3.844
316.55	3.84
317.57	3.84
318.58	3.837
319.59	3.833
320.62	3.826
321.58	3.817
322.64	3.81
323.65	3.803
324.68	3.794
325.68	3.786
326.68	3.779
327.64	3.769
328.72	3.755
329.73	3.742
330.74	3.725
331.76	3.704
332.8	3.682
333.78	3.657
334.59	3.636
335.81	3.605
336.82	3.578
337.84	3.554
338.85	3.524
339.86	3.493
340.88	3.463
341.89	3.425
342.91	3.381
343.92	3.337
344.93	3.296
345.95	3.245
346.96	3.194
347.97	3.143
348.99	3.089
350	3.027
351.01	2.973
352.03	2.918
353.04	2.867
354.05	2.81
355.07	2.759
356.08	2.704
357.09	2.653
358.11	2.602
359.12	2.548
360.14	2.497
361.15	2.446
361.54	2.429
362.64	2.385
364.34	2.307
365.08	2.275
366.19	2.229
367.23	2.18
368.24	2.136
369.26	2.092
370.27	2.044
371.28	1.993
372.3	1.946
373.31	1.895
374.32	1.844
375.34	1.793
376.35	1.748
377.36	1.701
378.38	1.653
379.39	1.602
