Uv/Vis Spectrum: INDENE
Formula: C9H8
CAS: 95-13-6
Melting point: -1.8
Boiling point: 182
Instrument: n.i.g.
Origin: INSTITUTE OF ENERGY PROBLEMS OF CHEMICAL PHYSICS, RAS
Wavelength (nm)	Logarithm epsilon
296.274	1.07842
295.699	1.1795
295.365	1.24066
295.187	1.27821
295.084	1.30842
295.035	1.32587
294.835	1.32927
294.722	1.33118
294.624	1.37306
294.563	1.39427
293.914	1.49178
293.639	1.53819
293.498	1.57329
293.405	1.57488
293.188	1.5786
293.128	1.60976
293.004	1.67218
292.863	1.73487
292.771	1.73646
292.555	1.74018
292.514	1.75767
292.401	1.79308
292.314	1.79987
292.117	1.81344
292.074	1.83771
291.957	1.88624
291.865	1.88783
291.651	1.89155
291.569	1.93038
291.406	1.98375
291.051	2.05799
290.96	2.05958
290.747	2.0633
290.708	2.07399
290.6	2.09581
290.393	2.10487
290.019	2.11372
289.981	2.12017
289.876	2.1336
289.455	2.10493
289.177	2.09811
289.043	2.08887
288.777	2.07041
288.623	2.06859
288.344	2.06551
287.593	2.09115
287.061	2.16369
286.522	2.23623
286.33	2.25706
285.791	2.2774
285.788	2.30622
285.238	2.2623
285.06	2.2419
284.56	2.22923
283.989	2.23224
283.875	2.23402
283.128	2.26709
282.918	2.29461
282.832	2.2962
282.63	2.29992
282.568	2.31642
282.371	2.36144
282.118	2.41895
281.855	2.48477
281.63	2.55466
281.511	2.58315
281.273	2.64013
281.03	2.6971
280.779	2.75408
280.692	2.7615
280.491	2.77686
280.233	2.77929
279.697	2.78456
279.361	2.77773
278.662	2.76407
278.543	2.73202
278.283	2.66793
278.108	2.66485
277.76	2.64797
277.759	2.65137
277.757	2.65817
277.559	2.64456
277.136	2.63772
276.879	2.64014
276.337	2.64541
276.26	2.65027
276.084	2.66043
276.05	2.67112
275.952	2.69294
275.87	2.69453
275.678	2.69825
275.573	2.71523
275.172	2.74626
274.999	2.75027
274.653	2.75883
274.185	2.79648
273.755	2.82427
273.584	2.82765
273.241	2.83441
273.045	2.8485
272.847	2.85718
272.646	2.85864
272.217	2.86197
272.143	2.86599
271.973	2.87457
271.635	2.88196
270.96	2.89728
270.245	2.93349
269.577	3.01072
269.497	2.98209
269.469	2.968
268.757	3.03286
268.214	3.09892
267.995	3.12303
267.498	3.19653
267.343	3.22746
267.179	3.23086
267.086	3.23278
266.616	3.30754
266.219	3.37685
265.863	3.40716
265.493	3.42725
265.461	3.43795
265.371	3.45976
265.255	3.46378
265.002	3.47234
264.49	3.51015
263.453	3.58576
263.378	3.58735
263.203	3.59107
263.042	3.6061
262.72	3.63616
262.578	3.63954
262.269	3.64631
262.268	3.65118
262.266	3.66135
262.192	3.66295
262.019	3.66667
261.988	3.67249
261.903	3.68413
261.716	3.68995
261.32	3.70202
261.319	3.70542
261.317	3.71222
261.308	3.7525
260.826	3.72466
260.618	3.73055
260.571	3.78169
260.514	3.73494
260.506	3.76989
260.445	3.74658
260.4	3.7524
260.074	3.76096
259.932	3.77759
259.734	3.78097
259.359	3.78772
259.194	3.79367
258.893	3.81777
258.799	3.81955
258.326	3.82256
257.94	3.83111
257.196	3.84767
257.152	3.85203
257.085	3.86076
256.87	3.86727
255.196	3.90569
255.046	3.91247
254.747	3.92603
254.415	3.93118
253.776	3.94096
253.655	3.94614
253.438	3.95597
253.214	3.95787
252.79	3.96123
252.421	3.96978
251.708	3.98635
251.159	3.99252
249.902	4.00603
248.708	4.00589
246.355	4.00561
245.706	4.00214
244.417	3.99566
244.321	3.99032
244.128	3.98009
243.955	3.97827
243.626	3.97517
243.261	3.9659
242.535	3.94737
242.402	3.94543
242.135	3.94198
241.58	3.92362
239.324	3.84551
239.324	3.8489
239.322	3.8557
239.194	3.84454
238.934	3.84303
238.407	3.82419
237.412	3.78749
237.308	3.78568
237.12	3.7826
236.978	3.7728
236.559	3.75437
236.396	3.75095
236.088	3.74412
236.054	3.73892
236	3.72906
235.839	3.72384
235.533	3.71395
235.498	3.71054
235.444	3.70374
235.342	3.7013
235.157	3.69642
235.033	3.68961
234.784	3.67598
234.535	3.66736
234.055	3.65064
233.931	3.64383
233.685	3.63021
233.315	3.61754
232.595	3.5922
232.561	3.5888
232.509	3.58199
232.352	3.57615
232.055	3.56446
231.504	3.54899
230.427	3.5186
230.277	3.51678
229.997	3.51369
229.55	3.5112
229.191	3.51115
228.551	3.52758
227.943	3.5464
227.859	3.55676
227.226	3.59921
227.147	3.6023
226.616	3.63941
226.564	3.64682
226.445	3.6622
226.327	3.66558
226.093	3.67234
225.957	3.68287
225.053	3.75033
224.937	3.75434
224.705	3.7629
224.654	3.76969
224.537	3.78327
224.369	3.78908
223.253	3.85346
