Uv/Vis Spectrum: Benzothiazole
Formula: C7H5NS
CAS: 95-16-9
Melting point: 2
Boiling point: 231
Instrument: Beckman DU
Origin: INSTITUTE OF ENERGY PROBLEMS OF CHEMICAL PHYSICS, RAS
Wavelength (nm)	Logarithm epsilon
211.565	4.21697
211.846	4.22091
212.142	4.22471
212.444	4.22843
214.599	4.24922
214.965	4.25192
215.337	4.25449
215.724	4.25699
217.245	4.26478
217.742	4.26448
218.253	4.26412
218.771	4.26362
220.547	4.24952
220.794	4.24489
221.048	4.24019
221.316	4.23536
222.362	4.21875
222.609	4.21413
222.863	4.20943
223.131	4.2046
224.147	4.18521
224.395	4.17896
224.65	4.17257
224.919	4.16612
226.212	4.14181
226.285	4.13749
226.37	4.13317
226.463	4.12886
227.482	4.10299
227.731	4.09622
227.986	4.08944
228.255	4.08267
229.274	4.0568
229.438	4.05125
229.616	4.04571
229.801	4.04016
230.577	4.01336
230.741	4.00741
230.919	4.00133
231.104	3.99518
231.881	3.96683
232.037	3.96181
232.2	3.95665
232.376	3.95143
233.427	3.9234
233.552	3.91877
233.676	3.91406
233.8	3.90922
234.453	3.88457
234.577	3.87995
234.702	3.87533
234.826	3.87071
235.481	3.84112
235.554	3.83609
235.64	3.83093
235.733	3.8257
236.509	3.79735
236.512	3.79303
236.514	3.78871
236.516	3.78439
237.569	3.75112
237.726	3.74558
237.889	3.74003
238.065	3.73448
239.361	3.70493
239.433	3.70153
239.518	3.69806
239.61	3.69445
240.9	3.67662
241.063	3.67415
241.239	3.67161
241.423	3.66893
242.678	3.6585
242.802	3.65819
242.932	3.65781
243.076	3.65729
243.442	3.65607
243.604	3.65608
243.779	3.65609
243.961	3.6561
246.091	3.66515
246.394	3.66917
246.697	3.67312
247.001	3.67693
248.881	3.69893
249.06	3.70441
249.193	3.70674
249.276	3.70265
249.306	3.70449
249.344	3.70627
249.395	3.7079
249.395	3.7079
251.552	3.72591
252.132	3.72594
252.72	3.72597
253.321	3.726
255.342	3.71067
255.68	3.7073
256.025	3.70392
256.384	3.70054
257.919	3.67995
258.113	3.67624
258.32	3.67247
258.535	3.66856
259.949	3.64672
260.234	3.6421
260.534	3.63741
260.84	3.63258
262.011	3.60826
262.135	3.60447
262.259	3.60054
262.383	3.59655
263.554	3.57223
263.627	3.56721
263.713	3.56205
263.806	3.55682
264.585	3.52322
264.619	3.5186
264.659	3.51397
264.714	3.50935
265.124	3.48221
265.197	3.47542
265.284	3.46855
265.378	3.46155
265.635	3.43595
265.729	3.42916
265.824	3.4223
265.919	3.41529
266.176	3.3897
266.179	3.38374
266.182	3.37765
266.185	3.37149
266.72	3.33819
266.723	3.33224
266.726	3.32615
266.729	3.31999
266.987	3.29192
267.06	3.28597
267.147	3.27989
267.24	3.27373
267.528	3.24566
267.532	3.23887
267.535	3.232
267.538	3.22499
267.796	3.19662
267.87	3.18891
267.958	3.1812
268.052	3.17349
268.342	3.14264
268.415	3.1367
268.501	3.13061
268.595	3.12445
269.126	3.09887
269.283	3.09116
269.448	3.08346
269.625	3.07575
270.918	3.05267
271.074	3.04804
271.237	3.04334
271.413	3.03851
272.704	3.01944
272.949	3.01945
273.2	3.01946
273.466	3.01948
275.105	3.03622
275.316	3.04015
275.528	3.04395
275.74	3.04767
276.493	3.06592
276.827	3.07024
277.16	3.0745
277.494	3.07862
279.378	3.09167
279.947	3.09549
280.381	3.09751
281.052	3.09947
282.69	3.11899
282.81	3.12208
282.93	3.12509
283.051	3.12796
284.077	3.15116
284.145	3.15548
284.226	3.1598
284.314	3.16413
284.82	3.18976
284.893	3.18389
284.98	3.17795
285.073	3.17188
285.818	3.20771
286.102	3.20741
286.399	3.20703
286.703	3.20652
286.703	3.20652
286.828	3.20366
286.959	3.20066
287.104	3.19759
287.848	3.17449
287.881	3.17078
287.921	3.167
287.975	3.16308
288.632	3.13071
288.725	3.1264
288.819	3.12208
288.913	3.11777
289.414	3.08971
289.58	3.08201
289.759	3.0743
289.944	3.0666
290.471	3.05119
290.717	3.04873
290.97	3.04619
291.237	3.04352
291.481	3.04353
291.726	3.04354
291.978	3.04356
292.243	3.04357
293.361	3.06554
293.482	3.07017
293.61	3.07481
293.751	3.07944
294.507	3.09244
294.507	3.09244
294.538	3.0946
294.575	3.09676
294.626	3.09892
294.752	3.09298
294.909	3.10017
295.004	3.09338
295.205	3.10142
295.269	3.09371
295.337	3.09679
295.42	3.0998
295.509	3.10267
296.286	3.07185
296.41	3.06815
296.534	3.06437
296.658	3.06046
297.312	3.03334
297.314	3.02923
297.316	3.02499
297.318	3.02068
297.849	2.99479
297.883	2.99015
297.924	2.98545
297.978	2.98061
298.39	2.951
298.462	2.94598
298.548	2.94082
298.641	2.93559
299.173	2.91
299.175	2.90405
299.178	2.89796
299.182	2.8918
299.683	2.86375
299.687	2.85695
299.69	2.85008
299.694	2.84307
299.98	2.81994
300.015	2.81276
300.057	2.80543
300.112	2.79804
300.25	2.76596
300.252	2.76164
300.255	2.75732
300.257	2.753
300.272	2.72214
300.274	2.71782
300.276	2.7135
300.278	2.70918
300.301	2.6629
300.315	2.63451
300.369	2.66814
300.388	2.62949
300.45	2.67331
300.474	2.62433
300.538	2.67834
300.567	2.6191
300.582	2.58824
300.617	2.58198
300.658	2.57558
300.714	2.56912
