Uv/Vis Spectrum: Benzotriazole
Formula: C6H5N3
CAS: 95-14-7
Melting point: 100
Boiling point: 204(15)
Instrument: n.i.g.
Origin: INSTITUTE OF ENERGY PROBLEMS OF CHEMICAL PHYSICS, RAS
Wavelength (nm)	Logarithm epsilon
306.479	1.08591
306.306	1.11352
306.146	1.137
305.991	1.15801
305.833	1.17825
305.665	1.19937
305.478	1.22306
305.267	1.25098
305.022	1.28481
304.736	1.32623
304.402	1.3769
304.402	1.3769
304.366	1.37751
304.33	1.37843
304.293	1.38004
304.251	1.38269
304.201	1.38677
304.141	1.39263
304.068	1.40065
303.98	1.4112
303.873	1.42464
303.745	1.44134
303.593	1.46167
303.414	1.486
303.206	1.51469
302.967	1.54813
302.693	1.58667
302.382	1.63068
302.032	1.68053
301.639	1.7366
301.203	1.79924
300.72	1.86883
300.188	1.94573
300.188	1.94573
300.08	1.97617
299.969	2.00661
299.856	2.03704
299.741	2.06748
299.625	2.09791
299.508	2.12834
299.508	2.12834
299.136	2.13421
299.133	2.13656
299.13	2.13908
299.127	2.14168
299.037	2.16518
298.801	2.17974
298.598	2.1845
298.598	2.1845
298.315	2.23816
298.067	2.28345
297.851	2.32154
297.661	2.35361
297.493	2.38083
297.342	2.40436
297.205	2.42538
297.076	2.44506
296.951	2.46457
296.826	2.48508
296.696	2.50777
296.557	2.53379
296.557	2.53379
296.294	2.55284
296.022	2.58477
295.76	2.60382
295.76	2.60382
295.453	2.65772
295.211	2.69423
295.023	2.72108
294.876	2.74596
294.757	2.77659
294.757	2.77659
293.989	2.84834
293.422	2.90239
293.019	2.94129
292.744	2.96754
292.562	2.98367
292.436	2.99218
292.332	2.99561
292.332	2.99561
291.988	3.03771
291.695	3.06784
291.403	3.09866
291.058	3.14286
291.058	3.14286
290.643	3.17069
290.034	3.22296
289.462	3.26494
289.462	3.26494
288.761	3.32093
288.332	3.35151
287.804	3.38288
287.804	3.38288
287.056	3.41155
286.219	3.44522
285.327	3.47958
284.416	3.51029
284.416	3.51029
284.116	3.52178
283.816	3.53336
283.517	3.5451
283.517	3.5451
281.582	3.58671
280.452	3.60908
279.681	3.62519
279.681	3.62519
278.821	3.63759
278.251	3.64445
277.483	3.65165
277.483	3.65165
277.11	3.65339
276.738	3.65521
276.366	3.6572
276.366	3.6572
275.608	3.65503
274.845	3.65277
274.082	3.65034
274.082	3.65034
273.562	3.64334
272.506	3.63214
270.792	3.61338
268.316	3.58372
268.316	3.58372
267.853	3.58401
267.385	3.58447
266.913	3.58501
266.913	3.58501
266.306	3.59571
265.702	3.60658
265.101	3.61753
265.101	3.61753
262.885	3.67288
261.771	3.70242
261.261	3.71312
261.261	3.71312
261.205	3.71619
261.146	3.71944
261.078	3.72276
261.078	3.72276
260.613	3.72548
260.355	3.72837
260.084	3.73392
260.084	3.73392
259.908	3.74147
259.598	3.74938
258.892	3.76443
258.892	3.76443
258.478	3.77072
258.065	3.77717
257.654	3.7837
257.654	3.7837
257.127	3.78795
256.599	3.79221
256.066	3.79645
256.066	3.79645
255.728	3.7963
255.384	3.79615
255.037	3.79599
255.037	3.79599
254.165	3.78244
253.6	3.7721
252.859	3.75611
252.859	3.75611
252.812	3.75299
252.762	3.7497
252.705	3.74632
252.705	3.74632
251.858	3.72862
251.01	3.71075
250.164	3.69279
250.164	3.69279
250.039	3.68488
249.906	3.67697
249.771	3.66905
249.771	3.66905
248.734	3.64237
248.254	3.63158
247.917	3.62742
247.917	3.62742
247.899	3.62431
247.875	3.62102
247.847	3.61766
247.847	3.61766
247.009	3.5968
245.881	3.565
245.097	3.54417
245.097	3.54417
245.007	3.53653
244.911	3.52873
244.811	3.52085
244.811	3.52085
244.216	3.51129
243.712	3.50452
243.573	3.49668
243.47	3.49328
243.367	3.48996
243.332	3.49656
243.332	3.49656
243.264	3.4868
243.264	3.4868
243.153	3.4946
243.037	3.48684
242.974	3.49264
242.915	3.48785
242.796	3.49068
242.796	3.49068
