Uv/Vis Spectrum: 2-Amino-6-chlorobenzothiazole
Formula: C7H5ClN2S
CAS: 95-24-9
Melting point: 200
Instrument: Hilger E 49 medium spectrograph
Origin: INSTITUTE OF ENERGY PROBLEMS OF CHEMICAL PHYSICS, RAS
Wavelength (nm)	Logarithm epsilon
236.419	4.45088
236.419	4.45088
236.444	4.44828
236.486	4.44536
236.541	4.45131
236.568	4.44096
236.668	4.45174
236.714	4.43397
236.798	4.45217
236.947	4.42325
237.292	4.40766
237.773	4.38608
237.773	4.38608
237.969	4.37857
238.165	4.37107
238.362	4.36357
238.559	4.35608
238.757	4.3486
238.956	4.34113
239.156	4.33366
239.357	4.32619
239.56	4.31874
239.764	4.31129
239.97	4.30384
240.177	4.29641
240.387	4.28898
240.598	4.28155
240.812	4.27414
241.029	4.26673
241.248	4.25932
241.469	4.25192
241.694	4.24453
241.922	4.23714
242.153	4.22977
242.387	4.22239
242.625	4.21502
242.866	4.20766
243.111	4.20031
243.361	4.19296
243.614	4.18562
243.872	4.17829
244.134	4.17096
244.401	4.16363
244.673	4.15632
244.949	4.14901
245.231	4.1417
245.518	4.13441
245.81	4.12711
246.108	4.11983
246.108	4.11983
246.542	4.11278
247.001	4.10586
247.502	4.09927
248.059	4.09317
248.689	4.08774
249.408	4.08317
250.231	4.07962
250.341	4.07889
251.421	4.07939
252.255	4.08097
253.026	4.08455
253.918	4.09105
253.918	4.09105
254.449	4.09687
254.971	4.10271
255.484	4.10858
255.988	4.11448
256.483	4.1204
256.971	4.12636
257.45	4.13235
257.922	4.13837
258.387	4.14442
258.845	4.1505
259.296	4.15663
259.741	4.16279
260.18	4.16899
260.613	4.17523
261.041	4.18151
261.463	4.18783
261.881	4.1942
262.293	4.20061
262.702	4.20707
263.106	4.21357
263.507	4.22013
263.904	4.22673
264.299	4.23339
264.69	4.2401
265.079	4.24687
265.465	4.25369
265.465	4.25369
265.848	4.25793
266.089	4.26227
266.297	4.26716
266.297	4.26716
266.84	4.27489
267.336	4.28194
267.803	4.28828
268.257	4.29387
268.715	4.29868
269.195	4.30267
269.712	4.30581
270.284	4.30806
270.928	4.30938
271.661	4.30976
272.499	4.30914
273.46	4.3075
273.46	4.3075
274.137	4.30403
274.786	4.30006
275.316	4.29366
275.316	4.29366
275.785	4.29093
276.337	4.28525
276.93	4.27763
277.521	4.26907
278.068	4.26058
278.53	4.25318
278.865	4.24787
278.865	4.24787
279.257	4.24071
279.676	4.23325
280.109	4.22553
280.54	4.21761
280.953	4.20951
281.334	4.20128
281.669	4.19296
281.94	4.18459
282.135	4.17622
282.416	4.17068
282.66	4.16344
282.896	4.15615
283.123	4.14881
283.343	4.14143
283.555	4.13401
283.76	4.12655
283.959	4.11905
284.152	4.11152
284.34	4.10396
284.523	4.09637
284.702	4.08876
284.877	4.08113
285.048	4.07349
285.217	4.06583
285.384	4.05815
285.549	4.05047
285.712	4.04279
285.875	4.0351
286.037	4.02741
286.2	4.01973
286.364	4.01205
286.364	4.01205
286.497	4.00461
286.629	3.99717
286.762	3.98973
286.893	3.98228
287.025	3.97484
287.157	3.96738
287.288	3.95993
287.42	3.95247
287.551	3.94501
287.683	3.93754
287.815	3.93008
287.948	3.92261
288.081	3.91514
288.214	3.90767
288.348	3.9002
288.482	3.89273
288.617	3.88525
288.753	3.87778
288.89	3.8703
289.028	3.86283
289.166	3.85535
289.306	3.84788
289.447	3.84041
289.589	3.83293
289.733	3.82546
289.878	3.81799
290.024	3.81052
290.172	3.80305
290.322	3.79558
290.473	3.78812
290.626	3.78066
290.78	3.7732
290.937	3.76574
291.096	3.75828
291.257	3.75083
291.419	3.74338
291.584	3.73594
291.752	3.7285
291.922	3.72106
292.094	3.71363
292.269	3.7062
292.446	3.69877
292.626	3.69135
292.808	3.68394
292.994	3.67652
293.182	3.66912
293.374	3.66172
293.568	3.65433
293.766	3.64694
