Uv/Vis Spectrum: Benzene, 1-nitro-4-(phenylthio)-
Formula: C12H9NO2S
CAS: 952-97-6
Melting point: 54-55
Instrument: SF-4
Origin: INSTITUTE OF ENERGY PROBLEMS OF CHEMICAL PHYSICS, RAS
Wavelength (nm)	Logarithm epsilon
224.51	4.092
225.35	4.069
226.37	4.045
227.38	4.024
228.23	3.997
229.41	3.977
230.76	3.96
232.12	3.946
233.47	3.929
234.82	3.912
236.17	3.895
237.53	3.882
239.05	3.872
240.57	3.861
241.92	3.848
243.44	3.844
244.96	3.838
246.48	3.831
248.01	3.824
249.53	3.814
251.05	3.81
252.57	3.8
254.09	3.793
255.44	3.783
256.96	3.776
258.32	3.763
259.84	3.753
261.36	3.742
262.71	3.729
264.06	3.715
265.42	3.698
266.77	3.685
267.95	3.668
269.13	3.647
270.32	3.627
271.33	3.606
272.35	3.586
273.36	3.566
274.54	3.545
275.56	3.525
276.57	3.504
277.59	3.484
278.56	3.463
279.59	3.443
280.99	3.423
282.49	3.413
284.01	3.419
285.53	3.43
287.04	3.444
288.24	3.464
289.42	3.481
290.6	3.501
291.62	3.521
292.8	3.538
293.98	3.555
295.17	3.576
296.35	3.596
297.53	3.617
298.51	3.635
299.73	3.661
300.91	3.681
301.76	3.705
302.77	3.725
303.96	3.746
304.97	3.77
305.98	3.79
307.17	3.807
308.18	3.827
309.36	3.848
310.55	3.868
311.56	3.889
312.75	3.909
313.93	3.926
315.11	3.943
316.29	3.96
317.48	3.977
318.66	3.994
319.84	4.011
321.2	4.028
322.55	4.041
323.73	4.058
325.08	4.075
326.44	4.089
327.79	4.103
329.16	4.116
330.49	4.126
331.85	4.137
333.37	4.143
334.89	4.143
336.41	4.147
337.93	4.143
339.45	4.143
340.97	4.14
342.49	4.133
344.02	4.123
345.37	4.113
346.89	4.106
348.24	4.092
349.59	4.079
350.95	4.062
352.3	4.052
353.65	4.038
355	4.021
356.36	4.007
357.71	3.99
358.89	3.973
360.07	3.956
361.26	3.939
362.44	3.919
363.46	3.899
364.64	3.878
365.82	3.858
367	3.841
368.02	3.821
369.03	3.797
370.22	3.776
371.23	3.756
372.24	3.736
373.09	3.712
374.27	3.691
375.12	3.668
376.13	3.644
377.15	3.62
377.99	3.596
379.01	3.572
379.85	3.545
380.87	3.525
381.71	3.501
382.56	3.474
383.23	3.447
384.08	3.423
384.92	3.396
385.77	3.372
386.44	3.345
387.29	3.321
387.8	3.294
388.64	3.27
389.32	3.243
390.16	3.219
390.84	3.192
391.68	3.165
392.36	3.137
393.2	3.11
393.88	3.083
394.56	3.056
395.23	3.029
395.91	3.001
396.59	2.974
397.26	2.947
397.94	2.92
398.44	2.893
398.95	2.865
399.63	2.838
400.14	2.811
400.81	2.784
401.32	2.757
401.99	2.729
402.5	2.702
403.01	2.675
403.52	2.648
404.19	2.621
404.7	2.593
405.21	2.566
405.88	2.539
406.39	2.512
407.07	2.485
407.57	2.454
408.08	2.427
408.59	2.4
409.09	2.373
409.6	2.345
410.11	2.318
410.78	2.291
411.29	2.264
411.8	2.233
412.31	2.206
412.81	2.179
413.32	2.152
413.83	2.124
414.33	2.094
414.84	2.067
415.35	2.039
415.69	2.009
416.19	1.982
416.7	1.954
417.21	1.924
417.71	1.897
418.22	1.866
418.73	1.835
419.07	1.805
419.57	1.778
420.08	1.747
420.42	1.717
420.93	1.686
421.26	1.655
421.6	1.625
422.11	1.598
422.45	1.567
422.95	1.536
423.29	1.506
423.63	1.475
423.97	1.445
424.31	1.414
424.65	1.383
424.98	1.353
425.32	1.322
425.66	1.292
425.83	1.261
426.17	1.23
