Uv/Vis Spectrum: Benzoxazole, 2-methyl-
Formula: C8H7NO
CAS: 95-21-6
Melting point: 9.5
Boiling point: 200.5
Instrument: Beckman model DU
Origin: INSTITUTE OF ENERGY PROBLEMS OF CHEMICAL PHYSICS, RAS
Wavelength (nm)	Logarithm epsilon
210.92	3.872
211.15	3.872
211.37	3.87
211.6	3.868
211.83	3.868
212.06	3.841
212.29	3.831
212.52	3.826
212.75	3.826
212.98	3.821
213.21	3.809
213.44	3.804
213.66	3.801
213.89	3.799
214.12	3.794
214.35	3.789
214.58	3.787
214.81	3.784
215.04	3.779
215.27	3.774
215.5	3.772
215.73	3.769
215.95	3.769
216.18	3.767
216.41	3.767
216.64	3.767
216.87	3.767
217.1	3.767
217.33	3.767
217.56	3.767
217.79	3.767
218.02	3.767
218.24	3.767
218.47	3.769
218.7	3.769
218.93	3.774
219.16	3.777
219.39	3.777
219.62	3.784
219.85	3.789
220.08	3.792
220.31	3.799
220.53	3.801
220.76	3.806
220.99	3.814
221.22	3.818
221.45	3.821
221.68	3.831
221.91	3.833
222.14	3.836
222.37	3.843
222.6	3.848
222.82	3.855
223.05	3.858
223.28	3.865
223.51	3.868
223.74	3.87
223.97	3.872
224.2	3.875
224.43	3.877
224.66	3.88
224.89	3.887
225.11	3.89
225.34	3.89
225.57	3.892
225.8	3.899
226.03	3.902
226.26	3.902
226.49	3.904
226.72	3.909
226.95	3.912
227.18	3.914
227.4	3.914
227.63	3.914
227.86	3.917
228.09	3.917
228.32	3.919
228.55	3.917
228.78	3.917
229.01	3.917
229.24	3.914
229.47	3.914
229.69	3.912
229.92	3.909
230.15	3.907
230.38	3.904
230.61	3.902
230.84	3.892
231.07	3.882
231.3	3.882
231.53	3.88
231.76	3.877
231.98	3.872
232.21	3.865
232.44	3.86
232.67	3.853
232.9	3.848
233.13	3.843
233.36	3.838
233.59	3.831
233.82	3.826
234.05	3.821
234.27	3.814
234.5	3.809
234.73	3.801
234.96	3.792
235.19	3.787
235.42	3.779
235.65	3.772
235.88	3.765
236.11	3.76
236.34	3.75
236.56	3.738
236.79	3.73
237.02	3.72
237.25	3.713
237.48	3.703
237.71	3.691
237.94	3.681
238.17	3.671
238.4	3.659
238.63	3.64
238.85	3.63
239.08	3.62
239.31	3.608
239.54	3.6
239.77	3.588
240	3.573
240.23	3.561
240.46	3.551
240.69	3.544
240.92	3.532
241.15	3.519
241.37	3.507
241.6	3.492
241.83	3.483
242.06	3.47
242.29	3.453
242.52	3.434
242.75	3.419
242.98	3.387
243.21	3.36
243.44	3.353
243.66	3.343
243.89	3.328
244.12	3.313
244.35	3.296
244.58	3.282
244.81	3.264
245.04	3.255
245.27	3.237
245.5	3.23
245.73	3.22
245.95	3.213
246.18	3.203
246.41	3.198
246.64	3.188
246.87	3.186
247.1	3.179
247.33	3.179
247.56	3.176
247.79	3.176
248.02	3.176
248.24	3.176
248.47	3.176
248.7	3.176
248.93	3.176
249.16	3.176
249.39	3.179
249.62	3.179
249.85	3.184
250.08	3.188
250.31	3.188
250.53	3.191
250.76	3.193
250.99	3.198
251.22	3.201
251.45	3.201
251.68	3.203
251.91	3.211
252.14	3.213
252.37	3.22
252.6	3.225
252.82	3.228
253.05	3.235
253.28	3.237
253.51	3.245
253.74	3.252
253.97	3.257
254.2	3.262
254.43	3.272
254.66	3.282
254.89	3.284
255.11	3.294
255.34	3.304
255.57	3.313
255.8	3.323
256.03	3.336
256.26	3.35
256.49	3.365
256.72	3.377
256.95	3.387
257.18	3.397
257.4	3.402
257.63	3.412
257.86	3.412
258.09	3.409
258.32	3.387
258.55	3.38
258.78	3.375
259.01	3.372
259.24	3.37
259.47	3.37
259.69	3.37
259.92	3.37
260.15	3.37
260.38	3.372
260.61	3.372
260.84	3.375
261.07	3.38
261.3	3.389
261.53	3.397
261.76	3.402
261.98	3.412
262.21	3.431
262.44	3.446
262.67	3.468
262.9	3.483
263.13	3.495
263.36	3.507
263.59	3.529
263.82	3.541
264.05	3.546
264.27	3.541
264.5	3.502
264.73	3.468
264.96	3.345
265.19	3.223
265.42	3.198
265.65	3.179
265.88	3.166
266.11	3.144
266.34	3.144
266.56	3.139
266.79	3.139
267.02	3.137
267.25	3.139
267.48	3.139
267.71	3.142
267.94	3.144
268.17	3.149
268.4	3.152
268.63	3.166
268.63	3.39
269.31	3.47
269.31	3.5
269.54	3.52
270	3.52
270.23	3.52
270.69	3.52
271.15	3.5
271.37	3.088
271.6	2.965
271.83	2.843
272.06	2.774
