Uv/Vis Spectrum: 1H-Indole, 2-methyl-
Formula: C9H9N
CAS: 95-20-5
Melting point: 61
Boiling point: 272
Instrument: Beckman DU
Origin: INSTITUTE OF ENERGY PROBLEMS OF CHEMICAL PHYSICS, RAS
Wavelength (nm)	Logarithm epsilon
250.554	3.31455
250.93	3.32266
251.304	3.33089
251.675	3.33925
252.044	3.34768
252.411	3.35619
252.775	3.36474
253.138	3.37333
253.498	3.38193
253.857	3.39052
254.213	3.3991
254.567	3.40765
254.919	3.41615
255.269	3.42461
255.618	3.43299
255.964	3.4413
256.309	3.44953
256.652	3.45767
256.993	3.4657
257.332	3.47363
257.669	3.48145
258.005	3.48915
258.339	3.49672
258.672	3.50417
259.003	3.51148
259.332	3.51865
259.66	3.52569
259.986	3.53257
259.986	3.53257
260.405	3.5367
260.823	3.5407
261.24	3.54459
261.656	3.54838
262.073	3.55208
262.49	3.55571
262.907	3.55928
263.326	3.5628
263.745	3.56629
264.167	3.56975
264.59	3.57319
265.016	3.57663
265.444	3.58008
265.444	3.58008
265.998	3.57974
266.653	3.57721
267.124	3.57074
267.124	3.57074
267.205	3.5706
267.287	3.57042
267.373	3.57016
267.373	3.57016
267.373	3.56924
267.374	3.56824
267.375	3.5672
267.375	3.5672
267.58	3.56476
268.017	3.55942
268.591	3.5522
269.209	3.54416
269.776	3.53642
270.198	3.53019
270.379	3.52675
270.379	3.52675
270.746	3.52196
271.128	3.51736
271.523	3.51295
271.929	3.50871
272.344	3.50465
272.766	3.50076
273.195	3.49703
273.628	3.49347
274.064	3.49006
274.501	3.48679
274.938	3.48367
275.372	3.48068
275.802	3.47782
276.227	3.47508
276.644	3.47244
276.644	3.47244
277.295	3.46736
277.788	3.46342
278.178	3.46018
278.521	3.45714
278.872	3.45382
279.288	3.44971
279.824	3.44428
279.824	3.44428
280.313	3.4352
280.806	3.42588
281.301	3.41624
281.301	3.41624
281.628	3.40679
281.953	3.39644
282.274	3.38517
282.589	3.37299
282.897	3.35989
283.195	3.34587
283.482	3.33093
283.755	3.31504
284.013	3.29821
284.253	3.28042
284.253	3.28042
284.604	3.26135
284.904	3.24574
285.209	3.23022
285.575	3.21083
286.057	3.18286
286.057	3.18286
286.167	3.1837
286.276	3.18436
286.385	3.18493
286.385	3.18493
286.624	3.2061
286.83	3.22798
287.015	3.24983
287.189	3.27107
287.364	3.29121
287.55	3.30985
287.758	3.32667
287.999	3.34138
287.999	3.34138
288.087	3.34114
288.177	3.34085
288.27	3.34042
288.27	3.34042
288.348	3.33442
288.441	3.32415
288.609	3.30146
288.914	3.25561
288.914	3.25561
289.054	3.2356
289.186	3.21438
289.311	3.19187
289.433	3.16801
289.552	3.14271
289.674	3.11587
289.799	3.08739
289.93	3.05713
290.071	3.02496
290.223	2.99071
290.39	2.95418
290.573	2.91515
290.776	2.87337
291.001	2.82851
291.251	2.78022
291.527	2.72803
291.527	2.72803
291.875	2.68551
292.238	2.63929
292.615	2.58902
293.005	2.53433
293.405	2.4748
293.812	2.41003
294.226	2.33965
294.643	2.26347
295.062	2.18166
295.062	2.18166
295.081	2.11278
