Uv/Vis Spectrum: Phenol, 2-methyl-
Formula: C7H8O
CAS: 95-48-7
Melting point: 30.8
Instrument: Beckman DU
Origin: INSTITUTE OF ENERGY PROBLEMS OF CHEMICAL PHYSICS, RAS
Wavelength (nm)	Logarithm epsilon
217.32	3.747
217.49	3.747
217.66	3.747
217.83	3.747
218.17	3.734
219.02	3.699
219.87	3.665
220.72	3.614
221.57	3.566
222.42	3.515
223.27	3.464
224.12	3.399
224.97	3.33
225.82	3.248
226.67	3.166
227.51	3.078
228.36	2.955
229.21	2.842
230.06	2.736
230.91	2.627
231.76	2.528
232.61	2.439
233.46	2.357
234.31	2.295
235.16	2.227
236.01	2.183
236.86	2.162
237.7	2.162
238.55	2.162
239.4	2.172
240.25	2.183
241.1	2.196
241.95	2.213
242.8	2.234
243.65	2.258
244.5	2.285
246.2	2.302
247.05	2.326
247.9	2.353
248.74	2.377
249.59	2.412
250.44	2.446
251.29	2.473
252.14	2.514
252.99	2.552
253.84	2.603
254.69	2.654
255.54	2.695
256.39	2.736
257.24	2.791
258.09	2.818
258.93	2.859
259.78	2.886
260.63	2.927
261.48	2.958
262.33	2.989
263.18	3.023
264.03	3.05
264.88	3.078
265.73	3.091
266.58	3.112
267.43	3.143
268.28	3.17
269.13	3.194
269.97	3.214
270.82	3.242
271.67	3.262
272.52	3.276
273.37	3.266
274.22	3.242
275.07	3.207
275.92	3.177
276.77	3.163
277.62	3.18
278.47	3.225
279.32	3.259
280.17	3.242
281.01	3.146
281.86	2.941
282.71	2.736
283.56	2.531
284.41	2.326
285.26	2.121
285.94	2.022
286.96	1.821
287.47	1.684
287.98	1.52
288.49	1.394
289	1.267
289.51	1.158
