Uv/Vis Spectrum: 2,3-Butanedione, dioxime
Formula: C4H8N2O2
CAS: 95-45-4
Melting point: 234
Instrument: Beckman DU
Origin: INSTITUTE OF ENERGY PROBLEMS OF CHEMICAL PHYSICS, RAS
Wavelength (nm)	Logarithm epsilon
213.04	4.047
214.05	4.071
214.9	4.095
215.91	4.115
216.76	4.139
217.78	4.159
218.96	4.179
220.15	4.196
221.33	4.213
222.69	4.23
224.04	4.244
225.56	4.254
227.09	4.264
228.61	4.261
229.97	4.247
231.32	4.237
232.51	4.22
233.69	4.203
234.88	4.183
236.06	4.162
237.08	4.142
238.09	4.122
238.94	4.098
239.96	4.074
240.8	4.047
241.82	4.023
242.5	3.996
243.34	3.973
244.02	3.945
244.87	3.922
245.37	3.895
246.39	3.871
247.07	3.844
247.91	3.817
248.42	3.789
248.93	3.762
249.61	3.735
249.94	3.705
250.28	3.674
250.79	3.647
251.3	3.617
251.81	3.589
252.48	3.562
253.33	3.539
254.18	3.511
255.02	3.488
255.7	3.461
256.55	3.433
257.06	3.406
257.56	3.379
258.24	3.352
258.75	3.322
259.26	3.294
259.76	3.267
260.27	3.24
260.78	3.213
261.29	3.186
261.97	3.159
262.47	3.132
262.98	3.105
263.66	3.077
264.17	3.05
264.67	3.023
265.18	2.996
265.86	2.969
266.37	2.938
266.88	2.911
267.55	2.884
268.06	2.854
268.57	2.826
269.25	2.799
269.75	2.772
270.26	2.745
270.94	2.718
271.45	2.691
271.95	2.664
272.63	2.637
273.14	2.609
273.65	2.582
274.16	2.555
274.66	2.528
275.34	2.501
275.85	2.47
276.36	2.443
277.03	2.416
277.54	2.389
278.05	2.362
278.73	2.335
279.23	2.304
279.74	2.277
280.42	2.25
280.93	2.223
281.44	2.196
282.11	2.169
282.62	2.142
283.47	2.118
284.31	2.091
285.16	2.067
286.18	2.043
287.36	2.023
288.38	2.003
289.56	1.986
290.75	1.969
292.1	1.952
293.46	1.935
294.81	1.921
296.16	1.908
297.52	1.894
298.87	1.884
