Uv/Vis Spectrum: o-Chloroaniline
Formula: C6H6ClN
CAS: 95-51-2
Melting point: -14
Boiling point: 208.8
Instrument: n.i.g.
Origin: INSTITUTE OF ENERGY PROBLEMS OF CHEMICAL PHYSICS, RAS
Wavelength (nm)	Logarithm epsilon
324.622	0.673141
324.32	0.743878
324.043	0.807745
323.79	0.865258
323.56	0.916906
323.351	0.963197
323.162	1.00463
322.99	1.04172
322.834	1.07496
322.693	1.10485
322.565	1.13189
322.449	1.15658
322.343	1.17944
322.245	1.20095
322.154	1.22163
322.069	1.24197
321.988	1.26248
321.91	1.28366
321.832	1.306
321.754	1.33003
321.674	1.35623
321.674	1.35623
321.268	1.43521
320.899	1.50646
320.564	1.57047
320.261	1.62775
319.988	1.6788
319.743	1.72411
319.524	1.7642
319.328	1.79955
319.154	1.83067
318.999	1.85805
318.862	1.88221
318.739	1.90363
318.63	1.92283
318.532	1.94029
318.444	1.95652
318.362	1.97202
318.286	1.98729
318.213	2.00283
318.141	2.01913
318.069	2.03671
318.069	2.03671
317.496	2.10738
317.038	2.16168
316.678	2.20282
316.4	2.23401
316.186	2.25842
316.02	2.27926
315.885	2.29973
315.765	2.32302
315.765	2.32302
315.39	2.3475
314.952	2.38909
314.579	2.41356
314.579	2.41356
314.374	2.44283
314.078	2.47889
313.72	2.51943
313.33	2.56214
312.938	2.60472
312.571	2.64486
312.259	2.68025
312.03	2.70859
311.913	2.72756
311.913	2.72756
311.547	2.75204
311.119	2.79363
310.756	2.8181
310.756	2.8181
309.61	2.91259
308.996	2.96156
308.697	2.98077
308.501	2.98593
308.501	2.98593
307.681	3.02723
306.864	3.06863
306.052	3.11022
306.052	3.11022
304.726	3.14708
304.177	3.16493
303.925	3.17905
303.925	3.17905
302.974	3.19801
302.433	3.21188
301.836	3.23255
301.836	3.23255
300.768	3.2531
299.702	3.27374
298.634	3.29456
298.634	3.29456
296.455	3.31686
295.205	3.32873
294.546	3.33693
294.546	3.33693
292.891	3.33717
291.254	3.3376
289.636	3.33812
289.636	3.33812
288.982	3.33303
288.326	3.32793
287.663	3.32284
287.663	3.32284
286.57	3.30265
285.661	3.28488
285.031	3.27471
285.031	3.27471
284.665	3.26406
284.147	3.25093
283.346	3.23105
282.136	3.20014
280.396	3.15395
278.019	3.08818
278.019	3.08818
277.806	3.07837
277.497	3.06761
277.285	3.0578
277.285	3.0578
276.86	3.0457
276.505	3.03306
276.003	3.01653
276.003	3.01653
275.648	3.00006
275.198	2.98347
274.98	2.97117
274.98	2.97117
274.782	2.96475
274.569	2.9551
274.24	2.94285
274.24	2.94285
274.216	2.93787
274.183	2.93289
274.146	2.92792
274.146	2.92792
274.003	2.92789
273.862	2.92786
273.72	2.92783
273.72	2.92783
273.387	2.90191
273.347	2.86313
273.345	2.86729
273.343	2.87154
273.341	2.87597
273.156	2.88742
273.018	2.8759
273.018	2.8759
272.481	2.86007
272.013	2.84268
271.482	2.8238
271.482	2.8238
271.161	2.79747
270.786	2.77453
270.387	2.74818
270.387	2.74818
270.08	2.74224
269.778	2.73474
269.472	2.72852
269.472	2.72852
269.377	2.72216
269.282	2.71562
269.187	2.70899
269.187	2.70899
268.493	2.6873
267.799	2.66561
267.1	2.64392
267.1	2.64392
266.282	2.62457
265.465	2.60503
264.644	2.58539
264.644	2.58539
264.192	2.58103
263.738	2.57648
263.276	2.57184
263.276	2.57184
262.604	2.56962
261.932	2.56739
261.254	2.56517
261.254	2.56517
261.008	2.56802
260.754	2.57086
260.496	2.5737
260.496	2.5737
260.18	2.5844
259.86	2.5951
259.532	2.60579
259.532	2.60579
259.034	2.6429
258.668	2.66862
258.37	2.69583
258.37	2.69583
258.019	2.72587
257.539	2.77779
257.19	2.80782
257.19	2.80782
256.685	2.86943
256.313	2.90897
255.756	2.96035
255.756	2.96035
255.61	2.96983
255.441	2.9845
255.23	3.00553
254.954	3.03405
254.596	3.07124
254.134	3.11824
253.549	3.17622
253.533	3.24648
253.291	3.24643
253.053	3.24637
252.823	3.24632
252.823	3.24632
252.634	3.24627
252.44	3.27059
252.206	3.29388
251.893	3.33225
251.893	3.33225
251.655	3.34797
251.36	3.37407
251.065	3.39254
251.065	3.39254
250.427	3.44132
249.948	3.47284
249.618	3.49574
249.618	3.49574
249.244	3.51693
248.734	3.55337
248.19	3.59025
248.19	3.59025
247.815	3.60934
247.27	3.64265
246.617	3.68017
246.617	3.68017
245.815	3.7073
245.011	3.73444
243.236	3.78046
242.449	3.79653
241.544	3.81266
241.544	3.81266
240.9	3.81986
240.04	3.83141
238.867	3.84427
238.867	3.84427
238.312	3.84411
237.757	3.84396
237.198	3.84381
237.198	3.84381
236.755	3.84079
236.306	3.83777
235.856	3.83475
235.856	3.83475
234.621	3.81117
233.476	3.78772
232.807	3.7759
232.807	3.7759
232.24	3.75592
231.797	3.74213
231.541	3.73246
231.541	3.73246
230.523	3.70358
229.513	3.6747
228.509	3.64583
227.51	3.61695
227.51	3.61695
227.228	3.61188
226.941	3.60672
226.651	3.60137
226.651	3.60137
226.125	3.60121
225.602	3.60105
225.08	3.60089
225.08	3.60089
224.335	3.61541
223.8	3.6276
223.017	3.6479
223.017	3.6479
222.952	3.65463
222.825	3.66125
222.526	3.67344
