Uv/Vis Spectrum: 1,2-Benzenediamine
Formula: C6H8N2
CAS: 95-54-5
Melting point: 102
Instrument: Unicam SP 800
Origin: INSTITUTE OF ENERGY PROBLEMS OF CHEMICAL PHYSICS, RAS
Wavelength (nm)	Logarithm epsilon
202.01	4.496
203.02	4.517
203.85	4.54
204.69	4.567
205.2	4.598
205.7	4.628
206.03	4.659
206.2	4.689
207.04	4.713
208.55	4.713
209.22	4.686
209.55	4.655
210.06	4.628
210.56	4.598
211.06	4.567
211.56	4.54
212.23	4.513
212.91	4.486
213.41	4.459
213.91	4.432
214.58	4.405
215.08	4.375
215.59	4.344
216.09	4.317
216.42	4.287
216.93	4.26
217.26	4.229
217.6	4.199
218.1	4.168
218.44	4.138
218.77	4.108
219.27	4.077
219.78	4.047
220.28	4.02
220.78	3.993
221.45	3.966
222.12	3.938
222.79	3.911
223.63	3.884
224.47	3.857
225.47	3.837
226.31	3.813
227.49	3.793
228.83	3.78
230.34	3.773
231.84	3.773
233.35	3.773
234.86	3.763
236.37	3.756
237.71	3.742
239.05	3.729
240.22	3.709
241.23	3.688
242.07	3.665
243.07	3.644
243.74	3.617
244.58	3.594
245.42	3.567
246.09	3.54
246.93	3.516
247.43	3.489
248.27	3.462
248.94	3.435
249.44	3.408
249.94	3.381
250.61	3.354
251.12	3.323
251.62	3.296
252.12	3.269
252.63	3.242
253.13	3.212
253.63	3.185
254.13	3.158
254.64	3.13
255.31	3.103
255.98	3.076
256.48	3.049
257.32	3.026
257.99	2.999
258.83	2.975
259.66	2.948
260.5	2.924
261.51	2.901
262.85	2.884
264.36	2.884
265.87	2.894
267.21	2.904
268.38	2.921
269.39	2.941
270.39	2.961
271.4	2.982
272.07	3.009
273.07	3.032
273.91	3.059
274.75	3.087
275.59	3.114
276.26	3.141
277.09	3.164
277.93	3.191
278.77	3.215
279.61	3.239
280.61	3.262
281.45	3.289
282.46	3.313
283.3	3.337
284.47	3.357
285.64	3.377
286.98	3.394
288.32	3.404
289.66	3.414
291.17	3.418
292.51	3.408
294.02	3.398
295.36	3.384
296.37	3.364
297.37	3.343
298.38	3.32
299.22	3.293
300.06	3.269
300.73	3.242
301.4	3.215
302.23	3.188
302.91	3.161
303.41	3.134
304.08	3.107
304.75	3.08
305.25	3.053
305.75	3.026
306.26	2.999
306.76	2.972
307.26	2.945
307.77	2.914
308.27	2.884
308.77	2.853
309.11	2.823
309.78	2.796
310.11	2.765
310.45	2.735
310.95	2.708
311.28	2.677
311.79	2.65
312.12	2.62
312.46	2.59
312.96	2.563
313.3	2.532
313.63	2.502
313.97	2.471
314.3	2.441
314.64	2.41
314.97	2.38
315.31	2.35
315.47	2.319
315.81	2.289
315.98	2.258
316.48	2.231
316.82	2.201
316.98	2.17
317.32	2.14
317.49	2.11
317.82	2.079
318.16	2.049
318.49	2.018
318.66	1.988
318.99	1.957
319.33	1.927
319.66	1.897
320	1.866
320.34	1.836
320.67	1.805
321.01	1.775
321.17	1.744
321.51	1.714
321.84	1.684
322.18	1.653
322.51	1.623
322.85	1.592
323.18	1.562
323.52	1.531
323.85	1.501
324.19	1.471
324.53	1.44
324.86	1.41
325.2	1.379
325.53	1.349
326.03	1.318
326.37	1.288
326.7	1.258
327.04	1.227
327.37	1.197
327.71	1.166
328.04	1.136
328.55	1.105
328.88	1.075
