Uv/Vis Spectrum: Phenol, 2-chloro-
Formula: C6H5ClO
CAS: 95-57-8
Boiling point: 175-176
Instrument: Zeiss PMQ II
Origin: INSTITUTE OF ENERGY PROBLEMS OF CHEMICAL PHYSICS, RAS
Wavelength (nm)	Logarithm epsilon
192.19	4.598
192.27	4.598
192.35	4.6
192.43	4.6
192.51	4.6
192.59	4.6
192.67	4.602
192.75	4.602
192.83	4.602
192.91	4.604
193.15	4.613
193.64	4.626
194.13	4.634
194.62	4.636
195.11	4.643
195.61	4.645
196.11	4.645
196.61	4.639
197.11	4.634
197.62	4.624
198.13	4.607
198.64	4.589
199.15	4.57
199.67	4.545
200.19	4.517
200.71	4.478
201.24	4.435
201.76	4.423
202.29	4.393
202.83	4.339
203.36	4.29
203.9	4.23
204.45	4.177
204.99	4.125
205.54	4.068
206.09	4.023
206.64	3.978
207.2	3.942
207.76	3.912
208.32	3.888
208.89	3.869
209.45	3.847
210.03	3.837
210.6	3.826
211.18	3.822
211.76	3.82
212.34	3.82
212.93	3.82
213.52	3.822
214.12	3.824
214.72	3.824
215.32	3.824
215.92	3.826
216.53	3.826
217.14	3.824
217.75	3.822
218.37	3.818
218.99	3.813
219.62	3.794
220.25	3.783
220.88	3.773
221.52	3.749
222.15	3.726
222.8	3.708
223.45	3.687
224.1	3.661
224.75	3.638
225.41	3.612
226.07	3.587
226.74	3.557
227.41	3.527
228.08	3.493
228.76	3.441
229.44	3.381
230.13	3.302
230.82	3.223
231.51	3.125
232.21	3.009
232.92	2.907
233.62	2.783
234.33	2.686
235.05	2.575
235.77	2.473
236.5	2.389
237.22	2.289
237.96	2.216
238.7	2.154
239.44	2.113
240.19	2.092
240.94	2.071
241.7	2.062
242.46	2.071
243.22	2.09
244	2.109
244.77	2.133
245.55	2.156
246.34	2.184
247.13	2.216
247.93	2.254
248.73	2.297
249.53	2.34
250.35	2.383
251.16	2.411
251.99	2.445
252.81	2.464
253.65	2.485
254.49	2.524
255.33	2.565
256.18	2.599
257.04	2.641
257.9	2.691
258.77	2.738
259.64	2.783
260.52	2.825
261.4	2.862
262.3	2.898
263.19	2.932
264.1	2.964
265.01	2.996
265.92	3.039
266.84	3.084
267.77	3.131
268.71	3.17
269.65	3.195
270.6	3.217
271.55	3.236
272.51	3.259
273.48	3.285
274.46	3.306
275.44	3.334
276.43	3.349
277.43	3.358
278.43	3.349
279.44	3.328
280.46	3.306
281.49	3.3
282.52	3.296
283.56	3.292
284.61	3.272
285.67	3.244
286.09	3.228
286.45	3.213
286.81	3.199
287.18	3.18
287.55	3.163
287.92	3.146
288.16	3.129
288.34	3.099
288.53	3.046
288.71	3.02
288.89	3.003
289.07	2.956
289.25	2.924
289.43	2.892
289.61	2.832
289.79	2.798
289.98	2.77
290.16	2.736
290.34	2.708
290.52	2.667
290.71	2.633
290.89	2.605
291.07	2.571
291.26	2.541
291.44	2.509
291.62	2.498
291.81	2.44
291.99	2.398
292.18	2.334
292.36	2.299
292.55	2.263
292.73	2.225
292.92	2.192
293.11	2.163
293.29	2.133
293.48	2.098
293.66	2.068
293.85	2.036
294.04	2.006
294.23	1.968
294.41	1.936
294.6	1.878
294.79	1.844
294.98	1.823
295.17	1.801
295.36	1.78
295.54	1.752
295.73	1.737
295.92	1.72
296.11	1.701
296.3	1.686
296.49	1.664
296.68	1.643
296.87	1.622
297.07	1.602
297.26	1.577
297.45	1.564
297.64	1.542
297.83	1.523
298.02	1.502
298.22	1.491
