Uv/Vis Spectrum: Phenol, 3,4-dimethyl-
Formula: C8H10O
CAS: 95-65-8
Melting point: 60.8
Boiling point: 227
Instrument: unknown
Origin: INSTITUTE OF ENERGY PROBLEMS OF CHEMICAL PHYSICS, RAS
Wavelength (nm)	Logarithm epsilon
214.41	3.77
214.58	3.77
214.75	3.774
214.92	3.774
215.08	3.774
215.25	3.774
215.42	3.774
215.59	3.774
215.76	3.778
215.93	3.778
216.1	3.778
216.27	3.778
216.44	3.778
216.61	3.778
216.78	3.778
216.95	3.774
217.63	3.77
218.31	3.766
218.98	3.762
219.61	3.755
220.34	3.745
221	3.732
221.69	3.711
222.37	3.695
223.05	3.678
223.73	3.657
224.41	3.632
225.08	3.611
225.76	3.586
226.44	3.552
227.06	3.52
227.79	3.479
228.47	3.423
229.15	3.377
229.83	3.318
230.51	3.26
231.07	3.19
231.77	3.106
232.55	3.019
233.22	2.938
233.9	2.867
234.58	2.787
235.25	2.712
235.93	2.649
236.61	2.578
237.29	2.515
237.96	2.443
238.64	2.369
239.32	2.306
240	2.26
240.68	2.21
241.36	2.168
242.03	2.126
242.71	2.084
243.39	2.051
244.07	2.038
244.75	2.03
245.42	2.034
246.1	2.038
246.78	2.055
247.46	2.076
248.14	2.105
248.81	2.13
249.49	2.168
250.17	2.21
250.85	2.252
251.25	2.272
251.68	2.29
252.49	2.328
253.21	2.362
253.74	2.387
254.24	2.411
254.94	2.446
255.59	2.473
256.27	2.503
256.95	2.54
257.63	2.578
258.31	2.607
258.98	2.649
259.66	2.678
260.34	2.703
261.02	2.733
261.69	2.762
262.37	2.783
263.05	2.812
263.73	2.837
264.41	2.862
265.08	2.887
265.76	2.913
266.44	2.942
267.12	2.967
267.8	2.992
268.47	3.013
269.15	3.034
269.83	3.059
270.51	3.08
271.19	3.101
271.86	3.122
272.54	3.138
273.22	3.159
273.9	3.176
274.58	3.197
275.25	3.209
275.93	3.226
276.61	3.247
277.29	3.264
277.97	3.272
278.64	3.281
279.32	3.276
280	3.268
280.68	3.243
281.36	3.218
282.03	3.205
282.71	3.201
283.39	3.209
284.07	3.235
284.75	3.251
285.42	3.243
286.1	3.197
286.78	3.113
287.46	3.034
288.14	2.946
288.81	2.867
289.49	2.749
290.17	2.641
290.85	2.549
291.53	2.394
292.2	2.222
