Uv/Vis Spectrum: Benzene, 1,2,4-trimethyl-
Formula: C9H12
CAS: 95-63-6
Melting point: -43.8
Boiling point: 169.3
Instrument: Zeiss PMQ II or M4Q III
Origin: INSTITUTE OF ENERGY PROBLEMS OF CHEMICAL PHYSICS, RAS
Wavelength (nm)	Logarithm epsilon
281.193	1.39815
280.804	1.48919
280.435	1.57568
280.086	1.65773
279.756	1.73548
279.444	1.80904
279.15	1.87852
278.874	1.94405
278.614	2.00574
278.37	2.06372
278.141	2.11809
277.927	2.16898
277.727	2.21652
277.541	2.26081
277.368	2.30198
277.207	2.34014
277.059	2.37542
276.922	2.40793
276.795	2.43779
276.679	2.46512
276.573	2.49004
276.476	2.51267
276.388	2.53312
276.308	2.55152
276.236	2.56799
276.171	2.58264
276.112	2.59558
276.06	2.60695
276.013	2.61686
275.972	2.62543
275.935	2.63277
275.902	2.63901
275.873	2.64427
275.846	2.64865
275.823	2.65229
275.801	2.6553
275.781	2.6578
275.763	2.6599
275.744	2.66174
275.726	2.66342
275.707	2.66506
275.707	2.66506
275.493	2.66583
275.278	2.66659
275.064	2.66736
275.064	2.66736
275.064	2.67092
275.064	2.67443
275.064	2.67782
274.908	2.66506
274.772	2.66447
274.636	2.66377
274.5	2.66302
274.5	2.66302
274.035	2.62183
273.669	2.58069
273.376	2.53917
273.13	2.49684
273.13	2.49684
273.034	2.49555
272.933	2.49421
272.824	2.49275
272.824	2.49275
271.605	2.5046
271.236	2.52728
271.149	2.54917
271.149	2.54917
270.598	2.57636
269.641	2.60724
268.192	2.62473
268.192	2.62473
267.561	2.63971
266.888	2.65339
265.899	2.65562
265.899	2.65562
265.248	2.61162
264.737	2.56661
263.805	2.5216
263.805	2.5216
263.036	2.51863
262.358	2.51487
261.586	2.50883
261.586	2.50883
261.204	2.49614
260.68	2.48163
260.046	2.46927
260.046	2.46927
259.842	2.46001
259.462	2.44815
259.04	2.43838
259.04	2.43838
258.969	2.43525
258.808	2.42945
258.485	2.418
257.925	2.39795
257.059	2.36633
255.82	2.32017
254.147	2.25651
251.986	2.17239
251.986	2.17239
250.641	2.11332
250.102	2.08817
249.896	2.07538
249.896	2.07538
249.375	2.06004
248.997	2.0384
248.427	2.01795
248.427	2.01795
248.121	1.99364
247.518	1.96099
246.849	1.93907
246.849	1.93907
246.269	1.90548
245.673	1.87197
245.065	1.83853
244.445	1.80513
243.813	1.77177
243.173	1.73843
242.524	1.70508
241.869	1.67171
241.208	1.63832
240.544	1.60488
239.876	1.57137
239.207	1.53778
239.207	1.53778
237.693	1.47005
236.929	1.43703
236.715	1.42597
236.715	1.42597
236.439	1.42002
236.258	1.41525
236.068	1.41219
235.882	1.41091
235.725	1.41091
235.567	1.41091
235.411	1.41091
235.411	1.41091
234.338	1.44438
233.736	1.48488
233.395	1.527
233.109	1.56535
233.109	1.56535
232.756	1.61821
232.437	1.66559
232.15	1.70806
231.891	1.74623
231.655	1.78069
231.441	1.81202
231.244	1.84081
231.061	1.86767
230.888	1.89317
230.724	1.91791
230.563	1.94248
230.403	1.96747
230.241	1.99347
230.073	2.02108
229.896	2.05088
229.896	2.05088
229.774	2.08256
229.653	2.11424
229.532	2.14592
229.412	2.1776
229.293	2.20927
229.175	2.24094
229.057	2.2726
228.94	2.30427
228.823	2.33593
228.707	2.36759
228.592	2.39924
228.477	2.43089
228.363	2.46254
228.249	2.49418
228.136	2.52583
228.024	2.55746
227.912	2.5891
227.8	2.62073
227.69	2.65236
227.579	2.68398
227.469	2.71561
227.36	2.74722
227.251	2.77884
227.142	2.81045
227.034	2.84206
226.926	2.87366
226.819	2.90526
226.712	2.93686
226.605	2.96846
226.499	3.00005
226.393	3.03163
226.288	3.06322
226.183	3.09479
226.078	3.12637
225.973	3.15794
225.869	3.18951
225.765	3.22108
225.662	3.25264
225.558	3.2842
225.455	3.31575
225.455	3.31575
225.242	3.35049
225.018	3.38497
224.78	3.41923
224.524	3.4533
224.249	3.48724
223.95	3.52106
223.625	3.55483
223.27	3.58857
222.882	3.62233
222.882	3.62233
221.805	3.69166
221.057	3.73998
220.53	3.77358
220.122	3.79875
219.732	3.8218
219.261	3.84901
219.261	3.84901
219.034	3.85659
218.78	3.86696
218.546	3.87454
218.546	3.87454
217.895	3.89861
216.51	3.92348
215.218	3.93632
215.218	3.93632
213.516	3.95097
211.619	3.95533
209.694	3.95606
207.896	3.9598
207.896	3.9598
206.576	3.98164
205.642	4.00636
204.957	4.03433
204.388	4.06591
203.808	4.10148
203.808	4.10148
203.498	4.13561
203.214	4.16978
202.949	4.20397
202.701	4.23816
202.464	4.27233
202.234	4.30648
202.008	4.34057
201.78	4.3746
201.548	4.40853
201.306	4.44237
201.051	4.47609
200.779	4.50967
200.485	4.5431
200.485	4.5431
200.076	4.57147
199.761	4.60602
199.579	4.63678
199.579	4.63678
199.375	4.64814
199.102	4.66891
198.783	4.69217
198.783	4.69217
198.134	4.71357
197.464	4.72175
196.353	4.72306
196.353	4.72306
195.466	4.71699
194.477	4.71075
193.71	4.69549
193.71	4.69549
192.726	4.66455
192.059	4.62629
191.242	4.59211
191.242	4.59211
191.014	4.57885
190.859	4.57133
190.782	4.56658
190.782	4.56658
189.806	4.52971
188.902	4.49165
188.013	4.45171
188.013	4.45171
187.739	4.43412
187.441	4.41571
187.058	4.39217
186.53	4.35913
185.8	4.31227
184.812	4.24724
184.812	4.24724
184.38	4.22671
184.036	4.20114
