Uv/Vis Spectrum: 3-(4-chlorophenyl)-2,3-dihydro-3-hydroxy-1H-isoindol-1-one
Formula: C14H10ClNO2
CAS: 956-92-3
Melting point: 206-208
Instrument: Specord UV-Vis
Origin: INSTITUTE OF ENERGY PROBLEMS OF CHEMICAL PHYSICS, RAS
Wavelength (nm)	Logarithm epsilon
223.019	4.177
224.519	4.167
226.019	4.161
227.519	4.156
229.019	4.15
230.519	4.142
232.019	4.135
233.519	4.128
235.019	4.123
236.519	4.12
238.019	4.119
239.519	4.12
241.019	4.121
242.519	4.121
244.019	4.117
245.519	4.107
247.019	4.088
248.519	4.06
250.019	4.02
251.519	3.968
253.019	3.904
254.519	3.83
256.019	3.748
257.519	3.66
259.019	3.571
260.519	3.482
262.019	3.398
263.519	3.318
265.019	3.24
266.356	3.153
267.856	3.094
269.356	3.01
270.856	2.917
272.356	2.828
273.856	2.75
275.356	2.689
276.856	2.647
277.981	2.628
279.856	2.618
281.645	2.628
282.856	2.649
284.356	2.677
285.856	2.71
287.356	2.743
288.856	2.775
290.356	2.805
291.856	2.832
293.356	2.86
293.505	2.856
295.005	2.907
296.505	2.952
298.005	2.993
299.505	3.032
301.005	3.071
302.505	3.108
304.005	3.145
305.505	3.183
307.005	3.22
308.505	3.258
310.005	3.297
311.505	3.335
313.005	3.373
314.505	3.411
316.005	3.449
317.505	3.486
319.005	3.522
320.505	3.558
322.005	3.593
323.505	3.627
325.005	3.66
326.505	3.693
328.005	3.726
329.505	3.759
331.005	3.792
332.505	3.826
334.005	3.861
334.229	3.867
335.729	3.897
337.229	3.927
338.729	3.956
340.229	3.985
341.729	4.013
343.229	4.041
344.729	4.068
346.229	4.095
347.729	4.12
349.229	4.144
350.729	4.167
352.229	4.188
353.729	4.206
355.229	4.223
356.729	4.237
358.229	4.248
359.729	4.257
361.229	4.265
362.729	4.27
364.229	4.273
365.729	4.275
367.229	4.275
368.729	4.275
370.229	4.274
371.729	4.273
373.229	4.271
374.729	4.268
375.775	4.265
377.275	4.26
378.775	4.258
380.275	4.258
381.775	4.26
383.275	4.263
384.775	4.267
386.275	4.273
387.775	4.279
389.275	4.285
390.775	4.292
392.275	4.3
393.775	4.307
395.275	4.314
396.775	4.321
398.275	4.328
399.775	4.334
401.275	4.34
402.775	4.346
404.275	4.35
405.775	4.355
407.275	4.358
408.775	4.36
410.275	4.362
411.775	4.363
413.275	4.362
414.775	4.361
416.275	4.358
417.775	4.354
419.275	4.349
420.775	4.342
422.275	4.334
423.775	4.325
425.275	4.314
426.775	4.301
428.275	4.286
429.775	4.271
431.275	4.253
432.775	4.234
434.275	4.213
435.775	4.19
437.275	4.166
438.775	4.141
440.275	4.114
440.357	4.117
441.857	4.075
443.357	4.036
444.857	4.001
446.357	3.966
447.857	3.933
449.357	3.898
450.857	3.862
452.357	3.824
453.857	3.783
455.357	3.74
456.857	3.693
458.357	3.642
459.857	3.588
461.357	3.531
462.857	3.472
464.357	3.409
465.857	3.345
467.357	3.279
468.857	3.213
470.357	3.147
471.857	3.082
473.357	3.019
474.857	2.958
476.357	2.901
477.857	2.848
479.357	2.8
480.857	2.758
482.357	2.722
