Uv/Vis Spectrum: Phenol, 2,5-dimethyl-
Formula: C8H10O
CAS: 95-87-4
Melting point: 74.8
Boiling point: 211
Instrument: unknown
Origin: INSTITUTE OF ENERGY PROBLEMS OF CHEMICAL PHYSICS, RAS
Wavelength (nm)	Logarithm epsilon
213.46	3.813
213.63	3.813
213.79	3.813
213.96	3.817
214.12	3.817
214.29	3.817
214.45	3.817
214.61	3.821
214.78	3.821
214.94	3.821
215.11	3.821
215.27	3.825
215.43	3.825
215.6	3.825
215.76	3.825
215.93	3.829
216.09	3.825
216.75	3.825
217.4	3.821
218.06	3.817
218.72	3.813
219.38	3.809
220.03	3.796
220.69	3.792
221.35	3.771
222	3.75
222.66	3.725
223.32	3.692
223.97	3.655
224.63	3.626
225.29	3.588
225.94	3.547
226.6	3.505
227.26	3.463
227.91	3.405
228.57	3.359
229.23	3.301
229.88	3.239
230.54	3.168
231.2	3.085
231.85	2.981
232.51	2.877
233.17	2.777
233.82	2.715
234.48	2.644
235.14	2.582
235.79	2.523
236.45	2.469
237.11	2.415
237.77	2.357
238.42	2.319
239.08	2.286
239.74	2.249
240.39	2.22
241.05	2.182
241.71	2.149
242.36	2.124
243.02	2.107
243.68	2.103
244.33	2.099
244.99	2.103
245.65	2.112
246.3	2.124
246.96	2.161
247.62	2.203
248.27	2.24
248.93	2.274
249.59	2.315
249.76	2.322
250.59	2.355
251.33	2.385
251.56	2.394
252.21	2.423
252.87	2.465
253.53	2.503
254.18	2.536
254.84	2.573
255.5	2.602
256.16	2.644
256.81	2.677
257.47	2.711
258.13	2.744
258.78	2.777
259.44	2.806
260.1	2.835
260.75	2.86
261.41	2.885
262.07	2.914
262.72	2.939
263.38	2.96
264.04	2.985
264.69	3.01
265.35	3.035
266.01	3.06
266.66	3.085
267.32	3.106
267.98	3.126
268.63	3.147
269.29	3.168
269.95	3.185
270.6	3.197
271.26	3.214
271.92	3.23
272.57	3.247
273.23	3.255
273.89	3.272
274.55	3.285
275.2	3.285
275.86	3.276
276.52	3.264
277.17	3.251
277.83	3.239
278.52	3.23
279.14	3.239
279.8	3.251
280.46	3.276
281.11	3.293
281.46	3.297
281.77	3.285
282.11	3.221
282.51	3.124
283.11	2.996
283.73	2.887
284.4	2.781
285.05	2.686
285.71	2.59
286.37	2.49
287.02	2.378
287.68	2.286
288.34	2.178
