Uv/Vis Spectrum: Salicylaldehyde azine
Formula: C14H12N2O2
CAS: 959-36-4
Melting point: 214
Instrument: Beckman DK 2
Origin: INSTITUTE OF ENERGY PROBLEMS OF CHEMICAL PHYSICS, RAS
Wavelength (nm)	Logarithm epsilon
214.68	4.311
215.48	4.32
216.29	4.328
217.21	4.332
218.03	4.339
218.96	4.341
219.79	4.347
220.74	4.349
221.69	4.349
222.65	4.349
223.62	4.347
224.6	4.341
225.48	4.332
226.36	4.322
227.14	4.309
227.92	4.296
228.6	4.281
229.17	4.266
229.74	4.251
230.31	4.234
230.88	4.217
231.58	4.202
232.16	4.187
232.86	4.172
233.69	4.16
234.52	4.147
235.23	4.134
236.07	4.123
237.04	4.115
238.02	4.106
239.01	4.098
240	4.089
241	4.081
241.88	4.07
242.77	4.057
243.41	4.042
244.06	4.027
244.57	4.01
245.22	3.993
245.74	3.976
246.4	3.961
247.06	3.946
247.85	3.933
248.65	3.921
249.32	3.904
249.86	3.887
250.54	3.869
251.09	3.852
251.63	3.835
252.18	3.818
252.6	3.801
253.15	3.784
253.57	3.765
253.98	3.748
254.4	3.731
254.82	3.714
255.25	3.697
255.81	3.68
256.38	3.663
257.09	3.645
257.81	3.631
259.11	3.626
260.28	3.637
261.16	3.652
261.75	3.669
262.5	3.686
263.25	3.703
263.7	3.722
264.3	3.739
264.91	3.756
265.36	3.773
265.82	3.793
266.28	3.81
266.74	3.829
267.2	3.846
267.67	3.865
268.14	3.882
268.6	3.899
269.07	3.919
269.86	3.936
270.33	3.955
270.81	3.972
271.28	3.991
271.92	4.008
272.4	4.025
272.89	4.042
273.53	4.059
274.02	4.078
274.51	4.096
275.16	4.113
275.82	4.13
276.31	4.149
276.98	4.166
277.64	4.183
278.14	4.2
278.82	4.217
279.66	4.234
280.17	4.251
281.02	4.268
281.88	4.285
282.57	4.302
283.43	4.32
284.31	4.337
285.18	4.354
286.24	4.369
287.13	4.386
288.21	4.401
289.29	4.416
290.38	4.428
291.66	4.439
293.33	4.441
295.02	4.439
296.53	4.428
298.25	4.426
300	4.424
301.56	4.418
302.95	4.407
303.94	4.392
304.95	4.377
305.76	4.36
306.36	4.343
306.97	4.326
307.79	4.309
308.41	4.292
308.82	4.273
309.44	4.256
310.06	4.236
310.48	4.217
311.11	4.2
311.95	4.183
313.01	4.166
314.07	4.151
315.36	4.136
317.09	4.128
319.06	4.121
321.05	4.119
323.07	4.123
324.66	4.134
326.27	4.145
327.89	4.155
329.29	4.168
330.71	4.183
332.13	4.196
333.57	4.211
334.78	4.226
336.24	4.241
337.72	4.256
339.2	4.27
340.7	4.285
342.22	4.3
344	4.313
345.29	4.328
346.84	4.341
348.68	4.352
350.53	4.362
352.4	4.373
354.56	4.384
357.03	4.386
359.53	4.386
361.78	4.379
364.06	4.371
366.37	4.362
368.12	4.349
369.89	4.337
371.68	4.322
372.88	4.305
377.14	4.236
377.45	4.234
377.75	4.232
378.06	4.23
378.37	4.226
378.99	4.206
379.62	4.192
380.24	4.172
380.87	4.151
381.5	4.13
382.13	4.11
382.76	4.089
383.4	4.061
384.03	4.04
384.67	4.019
385.32	4.002
385.96	3.968
386.61	3.942
387.25	3.901
387.9	3.872
388.56	3.844
389.21	3.818
389.87	3.788
390.53	3.756
391.19	3.727
391.85	3.686
392.52	3.656
393.19	3.622
393.86	3.586
394.53	3.552
395.2	3.515
395.88	3.46
396.56	3.417
397.24	3.375
397.93	3.315
398.61	3.242
399.3	3.17
399.99	3.091
400.69	2.98
401.38	2.937
402.08	2.916
402.78	2.782
403.49	2.711
404.19	2.647
404.9	2.545
405.61	2.462
406.33	2.381
407.04	2.319
407.76	2.242
