Uv/Vis Spectrum: Benzene, 1,2,4,5-tetrachloro-
Formula: C6H2Cl4
CAS: 95-94-3
Melting point: 139.5
Boiling point: 244.5
Instrument: Unicam Spectrophotometer
Origin: INSTITUTE OF ENERGY PROBLEMS OF CHEMICAL PHYSICS, RAS
Wavelength (nm)	Logarithm epsilon
244.1	4.298
244.55	4.272
244.7	4.269
244.85	4.257
245.15	4.223
245.45	4.194
245.75	4.171
246.05	4.145
246.35	4.111
246.65	4.08
246.95	4.027
247.26	3.984
247.56	3.934
247.86	3.899
248.16	3.841
248.46	3.778
248.76	3.665
249.06	3.656
249.36	3.642
249.66	3.627
249.96	3.612
252.52	3.527
252.67	3.527
252.82	3.523
252.97	3.519
253.12	3.515
253.27	3.515
253.42	3.511
253.57	3.507
253.72	3.503
254.32	3.487
254.92	3.479
255.23	3.475
255.53	3.466
255.83	3.466
256.43	3.457
257.03	3.444
257.33	3.444
257.93	3.434
258.53	3.43
258.83	3.425
259.14	3.425
259.44	3.425
259.74	3.43
260.04	3.42
260.34	3.42
260.64	3.42
260.94	3.415
261.54	3.42
262.14	3.434
262.44	3.444
262.74	3.444
263.35	3.466
263.65	3.47
263.95	3.483
264.25	3.495
264.55	3.507
264.85	3.538
265.15	3.538
265.45	3.552
266.05	3.573
266.35	3.577
266.65	3.583
266.95	3.587
267.26	3.583
267.56	3.583
267.86	3.583
268.16	3.59
268.46	3.6
268.76	3.603
269.06	3.609
269.36	3.612
269.66	3.615
269.96	3.612
270.26	3.615
270.86	3.63
271.17	3.642
271.47	3.653
271.77	3.653
272.07	3.673
272.37	3.686
272.67	3.699
272.97	3.711
273.27	3.728
273.57	3.735
273.87	3.758
274.17	3.765
274.47	3.771
275.08	3.776
275.68	3.78
276.28	3.784
276.58	3.786
276.88	3.788
277.18	3.788
277.78	3.796
278.38	3.804
278.68	3.812
278.98	3.822
279.59	3.833
279.89	3.843
280.19	3.857
280.49	3.867
280.79	3.886
281.09	3.904
281.39	3.915
281.69	3.967
281.99	3.984
282.29	3.995
282.59	4.009
282.89	4.016
283.2	4.02
283.5	4.02
283.8	4.01
284.1	3.997
284.4	3.984
284.7	3.972
285	3.957
285.3	3.943
285.6	3.936
285.9	3.916
286.2	3.908
286.5	3.892
286.8	3.884
287.11	3.876
287.41	3.869
287.71	3.862
288.01	3.859
288.31	3.859
288.61	3.859
289.21	3.86
289.51	3.869
289.81	3.878
290.11	3.879
290.41	3.897
290.71	3.916
291.02	3.939
291.32	3.962
291.62	3.995
291.92	4.015
292.22	4.021
292.52	4.023
293.12	4.02
293.42	4.006
293.72	3.984
294.02	3.967
294.32	3.934
294.62	3.892
294.92	3.852
295.23	3.798
295.53	3.754
295.83	3.662
296.13	3.596
296.43	3.515
296.73	3.479
297.03	3.453
297.33	3.434
297.63	3.405
299.14	3.341
300.19	3.286
301.39	3.237
302.59	3.198
303.8	3.165
305.15	3.147
306.05	3.147
