Uv/Vis Spectrum: 1a,11b-dihydrobenz[3,4]antra[1,2-b]oxirene
Formula: C18H12O
CAS: 9621-32-3
Melting point: 119-120
Instrument: Cary 15
Origin: INSTITUTE OF ENERGY PROBLEMS OF CHEMICAL PHYSICS, RAS
Wavelength (nm)	Logarithm epsilon
262.038	4.455
262.538	4.456
263.038	4.457
263.538	4.459
264.038	4.463
264.538	4.47
265.038	4.481
265.538	4.495
266.038	4.514
266.538	4.536
267.038	4.56
267.538	4.586
268.038	4.611
268.538	4.634
269.038	4.653
269.538	4.664
270.038	4.665
270.497	4.648
270.997	4.626
271.497	4.605
271.997	4.586
272.497	4.57
272.997	4.558
273.497	4.549
273.997	4.544
274.497	4.544
274.997	4.548
275.497	4.556
275.997	4.568
276.497	4.583
276.997	4.601
277.497	4.622
277.997	4.644
278.497	4.666
278.948	4.684
279.4	4.7
279.851	4.716
280.302	4.721
280.753	4.723
281.204	4.718
281.655	4.704
282.106	4.671
282.558	4.629
283.009	4.579
283.46	4.523
283.911	4.462
284.362	4.387
284.813	4.307
284.886	4.255
285.36	4.187
285.86	4.118
286.36	4.066
286.86	4.027
287.36	3.998
287.86	3.977
288.36	3.962
288.86	3.951
289.36	3.943
289.86	3.936
290.36	3.931
290.86	3.926
291.36	3.921
291.86	3.916
292.36	3.912
292.86	3.907
293.526	3.901
294.026	3.899
294.526	3.898
295.026	3.898
295.526	3.898
296.026	3.898
296.526	3.899
297.026	3.9
297.526	3.902
298.026	3.903
298.526	3.905
299.026	3.907
299.526	3.909
300.026	3.911
300.526	3.914
301.026	3.916
301.526	3.918
302.026	3.92
302.526	3.923
303.026	3.925
303.526	3.928
304.026	3.931
304.526	3.934
305.026	3.937
305.526	3.94
306.026	3.944
306.526	3.948
307.14	3.954
307.64	3.96
308.14	3.966
308.64	3.973
309.14	3.98
309.64	3.987
310.14	3.994
310.64	4
311.14	4.005
311.64	4.009
312.14	4.011
312.64	4.013
313.14	4.013
313.64	4.012
314.14	4.009
314.64	4.005
315.14	4
315.64	3.993
316.14	3.986
316.64	3.978
316.845	3.976
