Uv/Vis Spectrum: Benzene, 1-chloro-2,4-dinitro-
Formula: C6H3ClN2O4
CAS: 97-00-7
Melting point: 50-50.5
Instrument: SF-4
Origin: INSTITUTE OF ENERGY PROBLEMS OF CHEMICAL PHYSICS, RAS
Wavelength (nm)	Logarithm epsilon
217.24	4.115
218.74	4.115
220.25	4.108
221.75	4.101
223.09	4.088
224.6	4.078
226.1	4.074
227.44	4.088
228.61	4.105
229.95	4.115
231.46	4.118
232.96	4.122
234.47	4.128
235.98	4.135
237.48	4.135
238.99	4.139
240.49	4.139
242	4.139
243.51	4.139
245.01	4.139
246.52	4.139
248.02	4.135
249.53	4.132
250.87	4.122
252.38	4.118
253.88	4.108
255.39	4.105
256.89	4.101
258.4	4.095
259.91	4.088
261.41	4.084
262.92	4.074
264.42	4.071
265.93	4.061
267.44	4.051
268.77	4.037
270.11	4.027
271.45	4.017
272.79	4
274.13	3.983
275.3	3.966
276.3	3.943
277.31	3.922
278.31	3.902
279.15	3.878
280.15	3.858
280.82	3.831
281.83	3.807
282.5	3.78
283.67	3.76
284.5	3.736
285.51	3.713
286.51	3.693
287.35	3.666
288.18	3.642
289.02	3.618
289.86	3.595
290.53	3.568
291.53	3.544
292.2	3.517
293.04	3.493
293.87	3.466
294.71	3.443
295.55	3.419
296.55	3.395
297.39	3.372
298.39	3.348
299.56	3.328
300.57	3.307
301.57	3.284
302.74	3.264
303.75	3.243
304.75	3.22
305.75	3.199
306.93	3.179
307.93	3.159
308.77	3.135
309.77	3.115
310.77	3.095
311.78	3.071
312.62	3.047
313.62	3.024
314.46	3
315.46	2.976
316.3	2.953
317.13	2.929
318.14	2.909
318.97	2.885
319.98	2.861
320.98	2.841
322.15	2.821
323.16	2.801
324.5	2.784
325.83	2.767
327.17	2.757
328.68	2.747
330.18	2.736
331.69	2.726
333.03	2.716
334.37	2.703
335.71	2.689
337.21	2.679
338.55	2.666
339.89	2.652
341.23	2.642
342.73	2.632
344.07	2.615
345.41	2.598
346.92	2.591
348.42	2.584
349.93	2.574
351.27	2.564
352.61	2.547
353.95	2.534
355.28	2.517
356.62	2.5
357.96	2.483
359.13	2.463
360.47	2.446
361.64	2.429
362.81	2.409
363.99	2.392
365.16	2.375
366.33	2.358
367.33	2.338
368.5	2.321
369.68	2.301
370.85	2.28
372.02	2.26
373.02	2.24
374.03	2.216
375.2	2.196
376.2	2.172
377.21	2.149
378.21	2.128
379.21	2.105
380.05	2.081
381.05	2.061
381.89	2.037
382.73	2.014
383.56	1.99
384.23	1.963
385.07	1.939
385.91	1.912
386.74	1.889
387.41	1.861
388.25	1.838
388.92	1.811
389.76	1.787
390.42	1.76
391.43	1.736
392.27	1.709
393.1	1.686
393.94	1.659
394.78	1.635
395.61	1.608
396.45	1.581
397.29	1.554
398.12	1.527
398.96	1.503
399.8	1.476
400.46	1.449
401.3	1.426
402.14	1.399
402.81	1.372
403.64	1.348
404.48	1.321
405.32	1.294
405.99	1.267
406.66	1.24
407.49	1.216
408.16	1.189
408.83	1.162
409.67	1.135
410.34	1.108
411.17	1.081
411.84	1.054
412.51	1.027
413.18	1
413.85	0.973
414.52	0.946
415.36	0.919
416.03	0.892
416.53	0.865
417.37	0.841
418.03	0.814
418.7	0.787
419.54	0.764
420.21	0.736
421.05	0.709
421.88	0.682
422.55	0.655
423.39	0.632
424.23	0.605
425.06	0.581
425.73	0.554
426.57	0.53
427.41	0.503
