Uv/Vis Spectrum: Eugenol
Formula: C10H12O2
CAS: 97-53-0
Melting point: -7.5
Boiling point: 253.2
Instrument: Beckman DU
Origin: INSTITUTE OF ENERGY PROBLEMS OF CHEMICAL PHYSICS, RAS
Wavelength (nm)	Logarithm epsilon
237.248	3.99486
237.455	3.99443
237.573	3.98873
237.686	3.98248
237.828	3.97663
237.941	3.97025
238.054	3.96378
238.196	3.95767
238.287	3.94904
238.401	3.94225
238.509	3.93486
238.645	3.92778
238.774	3.92218
238.887	3.91495
239.024	3.90753
239.083	3.87503
239.137	3.90004
239.255	3.89296
239.29	3.87446
239.392	3.88522
239.457	3.87217
239.613	3.86868
239.744	3.85985
239.873	3.8533
239.986	3.84481
240.099	3.83608
240.241	3.82785
240.365	3.82018
240.483	3.81164
240.631	3.80359
240.754	3.79539
240.884	3.78778
241.031	3.77927
241.16	3.77137
241.273	3.7611
241.426	3.75277
241.544	3.74279
241.668	3.73343
241.727	3.71392
241.832	3.69702
241.88	3.70472
241.945	3.71479
242.052	3.70215
242.149	3.68743
242.249	3.66857
242.372	3.65733
242.485	3.64392
242.638	3.63298
242.778	3.62385
242.896	3.61037
243.025	3.59867
243.162	3.58329
243.291	3.57069
243.409	3.55542
243.557	3.54092
243.681	3.52578
243.799	3.50881
243.941	3.49115
244.081	3.47844
244.199	3.45948
244.352	3.44282
244.503	3.43185
244.649	3.41902
244.799	3.40722
244.963	3.39195
245.119	3.38132
245.275	3.37041
245.449	3.35741
245.6	3.34402
245.761	3.33404
245.94	3.32185
246.102	3.3116
246.263	3.30084
246.459	3.29427
246.631	3.28761
246.804	3.28085
246.982	3.27644
247.177	3.2695
247.355	3.26469
247.533	3.26012
247.728	3.2529
247.906	3.24791
248.084	3.24315
248.285	3.23804
248.457	3.23045
248.634	3.2252
249.024	3.22011
249.212	3.22004
249.379	3.20959
249.422	3.23011
249.585	3.20663
249.763	3.2014
250.142	3.19007
250.715	3.18177
251.059	3.1643
251.242	3.16103
251.453	3.16094
252.026	3.15169
253.392	3.15111
253.586	3.1543
254.002	3.16308
254.196	3.16583
254.617	3.17714
254.811	3.18014
255.015	3.18817
255.238	3.19374
255.438	3.19924
255.636	3.20436
255.859	3.20973
256.059	3.21503
256.262	3.22245
256.462	3.22761
256.685	3.23269
256.884	3.23743
257.083	3.24241
257.311	3.24966
257.515	3.2568
257.714	3.26128
257.942	3.26823
258.147	3.27507
258.351	3.2818
258.556	3.28843
258.784	3.29495
258.994	3.30345
259.198	3.30976
259.432	3.31796
259.642	3.32626
259.852	3.33417
260.085	3.34193
260.306	3.35346
260.521	3.36269
260.765	3.37368
260.991	3.38611
261.185	3.38797
261.217	3.3982
261.438	3.40834
261.677	3.41668
261.967	3.4468
262.242	3.47062
262.48	3.47768
262.722	3.49167
262.97	3.50651
263.241	3.52101
263.488	3.5349
263.725	3.54601
264.024	3.56507
264.277	3.57886
264.561	3.59865
264.831	3.61458
265.123	3.62981
265.365	3.63972
265.629	3.65332
265.9	3.66359
266.153	3.67462
266.401	3.68442
266.661	3.69232
266.897	3.69999
267.14	3.70853
267.4	3.71591
267.637	3.72327
267.874	3.7305
268.1	3.73601
268.354	3.7422
268.586	3.74839
268.624	3.7537
268.791	3.75067
268.877	3.76269
269.11	3.76559
269.336	3.77068
269.557	3.77501
269.801	3.7793
270.037	3.78558
270.274	3.79186
270.511	3.79805
270.777	3.80479
271.014	3.8108
271.25	3.81664
271.516	3.82318
271.752	3.82887
272	3.83583
272.266	3.84202
272.508	3.84812
272.75	3.85414
273.016	3.86007
273.269	3.86712
273.5	3.8717
273.716	3.87459
274.003	3.88249
274.234	3.88692
274.466	3.89136
274.704	3.89405
274.914	3.89621
275.118	3.89783
275.352	3.90003
275.557	3.90163
275.761	3.90317
275.984	3.90425
276.183	3.90533
276.388	3.90691
276.586	3.90792
276.804	3.90848
277.003	3.90948
277.196	3.90998
277.613	3.91153
278.019	3.91207
278.589	3.91253
279.167	3.91142
279.373	3.91089
279.557	3.91037
279.739	3.90979
279.951	3.90977
280.134	3.90925
280.312	3.90822
280.513	3.90712
280.696	3.90659
280.874	3.90549
281.051	3.90438
281.258	3.90385
281.43	3.90223
281.613	3.90169
281.814	3.90058
281.986	3.89894
282.158	3.89729
282.36	3.89623
282.532	3.89457
282.709	3.89344
282.9	3.89124
283.077	3.8901
283.244	3.88788
283.416	3.8862
283.607	3.88396
283.779	3.88226
283.946	3.88001
284.109	3.87486
284.276	3.87256
284.438	3.86963
284.612	3.86556
284.736	3.85852
284.886	3.85427
285.055	3.84946
285.201	3.8446
285.346	3.83961
285.492	3.83464
285.66	3.82954
285.8	3.82375
285.94	3.81797
286.093	3.81067
286.233	3.80471
286.378	3.79923
286.525	3.79094
286.666	3.7847
286.8	3.77759
286.929	3.76958
287.077	3.76079
287.2	3.75172
287.292	3.73777
287.335	3.74405
287.445	3.72908
287.52	3.7401
287.563	3.71853
287.703	3.71105
287.839	3.69922
287.963	3.68876
288.104	3.68085
288.245	3.66904
288.364	3.65691
288.493	3.6463
288.622	3.63554
288.764	3.62242
288.899	3.61205
289.022	3.59923
289.18	3.58828
289.299	3.57363
289.428	3.56088
289.575	3.54643
289.705	3.53284
289.823	3.51616
289.97	3.5001
290.084	3.48072
290.175	3.39824
290.267	3.47932
290.396	3.46324
290.554	3.4482
290.683	3.4311
290.764	3.3981
290.801	3.4099
290.954	3.39097
291.062	3.36411
291.169	3.33523
291.317	3.3109
291.425	3.27811
291.522	3.2379
291.629	3.19884
291.777	3.16517
291.927	3.14376
292.067	3.11535
292.236	3.0879
292.381	3.05905
292.543	3.03961
292.722	3.01527
292.884	2.99424
293.051	2.97652
293.236	2.95288
293.408	2.93812
293.575	2.9179
293.752	2.90703
293.948	2.89058
294.115	2.86795
294.287	2.84995
294.488	2.83794
294.666	2.82484
294.838	2.80491
295.04	2.79158
295.212	2.77002
295.389	2.75467
295.59	2.73872
295.768	2.72317
295.945	2.70603
296.123	2.68925
296.324	2.67065
296.685	2.64169
296.886	2.62089
297.064	2.60038
297.247	2.5896
297.813	2.54093
298.197	2.50136
298.558	2.45788
298.943	2.4115
299.125	2.39266
299.509	2.3359
299.687	2.29546
299.899	2.29481
300.842	2.19152
