Uv/Vis Spectrum: Tetramethylthiuram monosulfide
Formula: C6H12N2S3
CAS: 97-74-5
Melting point: 110
Instrument: SF-4
Origin: INSTITUTE OF ENERGY PROBLEMS OF CHEMICAL PHYSICS, RAS
Wavelength (nm)	Logarithm epsilon
201.88	4.251
202.74	4.244
203.94	4.239
205.14	4.234
206.34	4.229
207.54	4.224
208.57	4.218
209.6	4.211
210.8	4.206
211.48	4.198
212.34	4.191
213.19	4.184
213.88	4.176
214.56	4.167
215.42	4.159
215.94	4.15
216.62	4.141
217.48	4.132
217.99	4.123
218.68	4.113
219.36	4.104
220.05	4.094
220.73	4.084
221.42	4.073
222.1	4.063
222.96	4.052
223.48	4.041
224.16	4.029
224.67	4.017
225.19	4.005
225.87	3.993
226.56	3.98
227.07	3.967
227.81	3.955
228.44	3.941
229.13	3.926
229.82	3.911
230.5	3.896
231.19	3.88
231.87	3.863
232.56	3.846
233.25	3.829
234.1	3.811
234.95	3.794
235.98	3.774
237.18	3.758
238.55	3.744
240.1	3.735
241.64	3.741
243.01	3.752
244.38	3.766
245.58	3.779
246.61	3.794
247.64	3.809
248.64	3.824
249.69	3.839
250.72	3.854
251.58	3.871
252.4	3.887
253.12	3.902
253.95	3.917
254.66	3.93
255.35	3.944
255.94	3.959
256.72	3.973
257.27	3.986
258.09	4.001
258.77	4.013
259.46	4.025
260.04	4.036
260.83	4.048
261.34	4.059
262.03	4.069
262.71	4.08
263.57	4.09
264.26	4.1
264.94	4.11
265.63	4.119
266.31	4.129
267	4.138
267.86	4.147
268.5	4.156
269.23	4.165
269.94	4.174
270.6	4.182
271.45	4.19
272.31	4.198
273.17	4.206
274.02	4.212
275.05	4.219
276.08	4.225
277.28	4.231
278.65	4.234
280.19	4.236
281.73	4.233
283.11	4.229
284.48	4.225
285.68	4.219
286.7	4.212
287.73	4.207
288.59	4.2
289.45	4.192
290.13	4.184
290.99	4.176
291.67	4.167
292.36	4.159
293.22	4.15
293.73	4.141
294.41	4.132
294.93	4.123
295.61	4.113
296.3	4.104
296.81	4.094
297.33	4.084
298.18	4.075
298.7	4.064
299.38	4.053
299.9	4.042
300.75	4.032
301.27	4.02
301.78	4.008
302.47	3.996
303.15	3.983
303.84	3.97
304.7	3.958
305.38	3.944
306.07	3.93
306.75	3.915
307.43	3.903
308.29	3.886
308.98	3.871
309.84	3.854
310.52	3.837
311.21	3.818
312.06	3.801
312.75	3.781
313.61	3.763
314.46	3.741
315.32	3.721
316.18	3.696
317.02	3.678
318.06	3.65
319.09	3.629
320.1	3.606
321.44	3.578
322.38	3.558
323.54	3.531
324.74	3.503
325.94	3.473
327.01	3.443
328.17	3.411
329.37	3.38
330.57	3.339
331.94	3.302
333.31	3.261
334.68	3.226
336.05	3.187
