Uv/Vis Spectrum: 2-Propenoic acid, 2-methyl-, 2-methylpropyl ester
Formula: C8H14O2
CAS: 97-86-9
Melting point: 155/ 760 mm
Boiling point: 155
Instrument: Beckman DK-2A
Origin: INSTITUTE OF ENERGY PROBLEMS OF CHEMICAL PHYSICS, RAS
Wavelength (nm)	Logarithm epsilon
175.396	3.503
175.462	3.503
175.462	3.507
175.528	3.503
175.528	3.507
175.594	3.503
175.594	3.507
175.66	3.507
175.66	3.503
175.66	3.507
175.726	3.507
175.792	3.507
175.858	3.507
175.924	3.507
175.986	3.508
176.986	3.53
177.986	3.554
178.986	3.578
179.986	3.603
180.986	3.629
181.883	3.652
182.883	3.679
183.883	3.707
184.883	3.736
185.883	3.764
186.883	3.793
187.883	3.822
188.883	3.85
189.297	3.868
190.297	3.884
191.297	3.899
192.297	3.913
193.297	3.927
194.297	3.939
195.297	3.95
196.297	3.96
197.297	3.967
198.297	3.973
199.297	3.977
200.297	3.979
201.297	3.98
201.85	3.974
202.85	3.974
203.85	3.969
204.85	3.962
205.85	3.95
206.85	3.935
207.85	3.916
208.85	3.894
209.85	3.868
210.85	3.838
211.85	3.805
212.85	3.768
213.85	3.727
214.279	3.697
215.279	3.661
216.279	3.601
217.279	3.531
218.279	3.459
219.279	3.391
220.279	3.325
221.279	3.257
222.279	3.177
223.166	3.087
224.166	3.007
225.166	2.909
226.166	2.793
227.166	2.658
228.166	2.503
229.063	2.324
