Uv/Vis Spectrum: 2-Furancarboxaldehyde
Formula: C5H4O2
CAS: 98-01-1
Melting point: -36.5
Boiling point: 161.7
Instrument: n.i.g.
Origin: INSTITUTE OF ENERGY PROBLEMS OF CHEMICAL PHYSICS, RAS
Wavelength (nm)	Logarithm epsilon
123.325	0.409443
123.156	0.430704
122.995	0.440956
122.807	0.462847
122.64	0.4841
122.473	0.505354
122.278	0.542776
122.109	0.569854
121.951	0.580103
121.766	0.601995
121.599	0.62843
121.435	0.649676
121.278	0.660581
121.099	0.676639
120.933	0.703076
120.768	0.730152
120.597	0.735216
120.439	0.751287
120.284	0.762191
120.105	0.783432
119.948	0.799506
119.789	0.82076
119.612	0.842004
119.453	0.863905
119.298	0.879331
119.14	0.901235
118.971	0.911472
118.817	0.92755
118.66	0.948804
118.489	0.964867
118.336	0.980944
118.184	0.997019
118.008	1.02409
117.86	1.03434
117.712	1.04524
117.558	1.06649
117.246	1.08763
117.097	1.1037
116.933	1.11459
116.781	1.13584
116.627	1.16293
116.459	1.18417
116.311	1.20024
116.164	1.21632
116	1.23238
115.859	1.23746
115.705	1.26971
115.565	1.27479
115.4	1.29603
115.255	1.31211
115.113	1.323
114.955	1.33324
114.812	1.34932
114.671	1.36022
114.511	1.37628
114.371	1.38718
114.226	1.40844
114.073	1.4135
113.929	1.43475
113.793	1.44047
113.498	1.46679
113.224	1.48794
113.073	1.49364
112.934	1.50972
112.798	1.51997
112.646	1.53086
112.511	1.54111
112.379	1.54683
112.244	1.55708
112.094	1.56797
111.959	1.57887
111.826	1.58912
111.679	1.59418
111.549	1.5999
111.416	1.61015
111.27	1.61586
111.141	1.62094
111.009	1.63183
110.862	1.64207
110.734	1.6478
110.603	1.65805
110.475	1.66312
110.332	1.66883
110.202	1.67908
110.075	1.6848
109.931	1.69504
109.676	1.71101
109.412	1.71597
109.282	1.73205
109.141	1.73776
109.017	1.74283
108.893	1.74791
108.764	1.76398
108.381	1.77466
108.241	1.7849
108.118	1.79062
107.996	1.79569
107.86	1.80076
107.738	1.80648
107.478	1.82244
107.358	1.82751
107.237	1.83258
106.98	1.84855
106.86	1.85362
106.738	1.86452
106.605	1.86958
106.484	1.88048
106.365	1.88555
106.23	1.89644
106.112	1.90151
105.992	1.91241
105.874	1.91749
105.74	1.92837
105.505	1.94434
105.372	1.95458
105.256	1.9603
105.14	1.96538
105.01	1.97044
104.895	1.97551
104.778	1.98641
104.637	2.01866
104.523	2.02373
104.409	2.02945
104.29	2.04488
104.16	2.05577
104.042	2.07184
103.929	2.07692
103.795	2.09881
103.68	2.10906
103.566	2.11996
103.435	2.13602
103.317	2.15727
103.205	2.16235
103.071	2.18941
102.958	2.19966
102.84	2.22157
102.73	2.22664
102.602	2.2427
102.478	2.28014
102.36	2.30657
102.228	2.33364
102.107	2.36589
101.99	2.39233
101.867	2.39803
101.75	2.42447
101.626	2.46772
101.512	2.48898
101.378	2.5264
101.26	2.55866
101.144	2.58509
101.011	2.62251
100.891	2.66059
100.774	2.6922
100.644	2.72444
100.523	2.7677
100.404	2.80514
100.269	2.85356
100.153	2.88517
100.036	2.92325
99.9226	2.94968
99.7928	2.9871
99.6674	3.04654
99.4241	3.11622
99.3105	3.14783
99.2009	3.16973
99.0773	3.19615
98.9622	3.23359
98.8576	3.24448
98.7346	3.27155
98.6265	3.2928
98.5167	3.31924
98.4091	3.34049
98.2872	3.36756
98.184	3.37846
98.0772	3.39971
97.9624	3.40995
97.8497	3.44803
97.7477	3.45828
97.6296	3.47952
97.5278	3.49042
97.4244	3.5065
97.3051	3.53292
97.1999	3.55482
97.1012	3.55989
96.9967	3.58115
96.8842	3.59203
96.7821	3.60811
96.6783	3.62936
96.5665	3.64025
96.4632	3.6615
96.366	3.66658
96.2511	3.68782
96.1541	3.69354
96.0517	3.71479
95.9494	3.73605
95.8393	3.74693
95.7434	3.75201
95.6455	3.76291
95.439	3.78404
95.342	3.7943
95.2333	3.80518
95.1386	3.81026
95.0401	3.82633
94.9303	3.8424
94.834	3.8533
94.7383	3.86355
94.6424	3.87445
94.5354	3.88533
94.3468	3.9013
94.2406	3.91154
94.1458	3.92244
94.0514	3.93269
93.9457	3.94358
93.8514	3.95448
93.7576	3.96473
93.6543	3.97044
93.5609	3.98069
93.4657	3.99677
93.3724	4.00767
93.2702	4.01273
93.1793	4.0178
93.0884	4.02352
92.9868	4.02858
92.8945	4.03948
92.8044	4.04456
92.6154	4.04951
92.5258	4.05459
92.4361	4.06031
92.3342	4.07055
92.0599	4.07605
91.7875	4.0809
90.7328	4.07444
90.5557	4.0684
90.0367	4.0574
89.6952	4.05697
89.2678	4.04542
89.1079	4.03486
89.0285	4.02893
88.9371	4.02882
88.6861	4.02331
88.3564	4.01771
88.2782	4.01178
88.2	4.0065
88.112	4.00121
87.958	3.98482
87.8707	3.97888
87.7174	3.96314
87.6288	3.96302
87.5519	3.95709
87.4749	3.95181
87.3119	3.94059
87.159	3.93003
86.9227	3.90835
86.7617	3.89712
86.6846	3.89702
86.5996	3.89173
86.3681	3.86422
86.2932	3.85894
86.0616	3.83726
85.8314	3.81493
85.7589	3.80447
85.6868	3.79336
85.4584	3.77168
85.3775	3.76056
85.3058	3.7501
85.1615	3.73372
85.0796	3.72777
84.9359	3.71204
84.856	3.70092
84.7132	3.68453
84.6336	3.67341
84.5632	3.66295
84.4931	3.65184
84.3424	3.63544
84.2725	3.62499
84.2014	3.61906
84.1226	3.60859
84.0546	3.5923
83.9839	3.58637
83.8348	3.57062
83.7659	3.55952
83.6865	3.55422
83.6193	3.53794
83.4806	3.52155
83.4034	3.51043
83.335	3.49997
83.2654	3.49404
83.187	3.48875
83.1191	3.47764
83.0498	3.47236
82.9733	3.46124
82.7591	3.43956
82.6904	3.43428
82.5534	3.42307
82.4749	3.42295
82.408	3.41249
82.2633	3.40127
82.1277	3.39006
82.0514	3.38477
81.8476	3.3741
81.7035	3.36806
81.4929	3.35738
81.3501	3.35134
81.14	3.34583
80.8639	3.34023
80.5898	3.33398
80.3836	3.32848
79.1673	3.33172
78.83	3.337
78.5037	3.34165
78.3055	3.34651
78.0378	3.35189
77.9119	3.35686
77.7787	3.36182
77.5224	3.36722
77.3904	3.37217
77.2666	3.37714
77.0746	3.382
77.0048	3.38771
76.8822	3.39268
76.6921	3.39753
76.6305	3.40325
76.5605	3.41349
76.3121	3.41889
76.1917	3.42386
76.0036	3.43454
75.8179	3.43939
