Uv/Vis Spectrum: Benzene, tert-butyl-
Formula: C10H14
CAS: 98-06-6
Melting point: -57.8
Boiling point: 169.1
Instrument: n.i.g.
Origin: INSTITUTE OF ENERGY PROBLEMS OF CHEMICAL PHYSICS, RAS
Wavelength (nm)	Logarithm epsilon
272.711	0.677068
272.635	0.702801
272.567	0.724399
272.486	0.747653
272.371	0.778332
272.202	0.822227
271.958	0.885107
271.958	0.885107
271.904	0.886226
271.842	0.887488
271.777	0.888831
271.777	0.888831
271.755	0.71021
271.755	0.707843
271.755	0.705479
271.755	0.703119
271.604	0.920593
271.521	0.939594
271.457	0.962123
271.457	0.962123
271.403	0.96324
271.341	0.964505
271.276	0.965846
271.276	0.965846
271.257	0.979116
271.23	0.992536
271.199	1.00603
271.199	1.00603
270.767	1.08623
270.398	1.15507
270.086	1.21347
269.826	1.2624
269.612	1.30279
269.44	1.33558
269.305	1.36173
269.201	1.38218
269.124	1.39787
269.069	1.40975
269.031	1.41876
269.005	1.42585
268.987	1.43195
268.97	1.43802
268.97	1.43802
268.917	1.43914
268.857	1.4404
268.793	1.44175
268.793	1.44175
268.716	1.47146
268.639	1.50118
268.562	1.5309
268.562	1.5309
268.341	1.56716
268.152	1.6031
267.965	1.63967
267.745	1.67783
267.745	1.67783
267.725	1.68874
267.699	1.69979
267.668	1.71092
267.668	1.71092
267.616	1.71204
267.556	1.71331
267.493	1.71465
267.493	1.71465
267.396	1.74643
267.281	1.77709
267.185	1.80887
267.185	1.80887
267.132	1.80999
267.073	1.81126
267.01	1.8126
267.01	1.8126
266.865	1.84347
266.724	1.86963
266.505	1.90536
266.123	1.96493
266.123	1.96493
266.014	1.97643
265.905	1.988
265.796	1.99973
265.796	1.99973
265.683	2.03007
265.603	2.04549
265.488	2.05917
265.488	2.05917
265.361	2.06726
265.276	2.07497
265.161	2.08891
265.161	2.08891
264.924	2.09816
264.799	2.10456
264.678	2.11358
264.678	2.11358
264.548	2.11698
264.412	2.12045
264.273	2.12407
264.273	2.12407
264.195	2.12924
264.113	2.13456
264.025	2.13995
264.025	2.13995
263.839	2.14504
263.653	2.1502
263.468	2.15552
263.468	2.15552
263.408	2.16071
263.344	2.16395
263.221	2.16802
263.221	2.16802
262.659	2.17896
262.102	2.19072
261.078	2.21339
261.078	2.21339
260.819	2.21452
260.557	2.21579
260.289	2.21715
260.289	2.21715
259.64	2.21718
258.99	2.21722
258.337	2.21726
258.337	2.21726
257.95	2.21617
257.564	2.21493
257.179	2.21361
257.179	2.21361
256.123	2.20529
255.36	2.20003
254.821	2.19619
254.821	2.19619
254.575	2.19319
254.275	2.19012
253.924	2.18577
253.924	2.18577
253.536	2.18322
253.305	2.18095
253.033	2.17704
253.033	2.17704
252.723	2.16915
252.495	2.16259
252.29	2.15784
252.29	2.15784
252.172	2.15682
252.048	2.15573
251.921	2.15449
251.921	2.15449
251.631	2.14856
251.247	2.14122
250.818	2.13193
250.818	2.13193
250.583	2.12882
250.317	2.12428
249.794	2.11443
249.794	2.11443
249.752	2.11163
249.706	2.10868
249.654	2.10566
249.654	2.10566
249.584	2.10464
249.511	2.10354
249.431	2.1023
249.431	2.1023
249.389	2.09994
249.343	2.09758
249.292	2.09522
249.292	2.09522
248.563	2.07759
248.191	2.06894
247.853	2.06188
247.853	2.06188
247.835	2.05975
247.811	2.05748
247.784	2.05513
247.784	2.05513
247.306	2.04272
246.942	2.03429
246.567	2.02549
246.567	2.02549
246.525	2.02312
246.481	2.02076
246.43	2.0184
246.43	2.0184
246.317	2.01605
246.199	2.01369
246.077	2.01133
246.077	2.01133
245.935	2.0017
245.775	1.99207
245.588	1.97996
245.588	1.97996
245.207	1.96869
244.842	1.9563
244.606	1.94862
244.606	1.94862
244.482	1.94305
244.301	1.93711
243.911	1.9257
243.911	1.9257
243.858	1.92075
243.803	1.91761
243.697	1.91356
243.697	1.91356
243.587	1.91187
243.471	1.9101
243.352	1.90818
243.352	1.90818
243.312	1.90244
243.268	1.89671
243.219	1.89097
243.219	1.89097
243.126	1.88861
243.033	1.88625
242.941	1.8839
242.941	1.8839
242.889	1.8774
242.837	1.87285
242.741	1.86635
242.741	1.86635
242.375	1.85179
242.092	1.83955
241.649	1.81915
241.649	1.81915
241.445	1.80688
241.273	1.79724
241.165	1.78946
241.165	1.78946
240.992	1.78372
240.813	1.77791
240.632	1.77194
240.632	1.77194
240.615	1.76981
240.592	1.76754
240.567	1.76519
240.567	1.76519
240.45	1.76115
240.334	1.7571
240.217	1.75306
240.217	1.75306
240.152	1.749
240.088	1.74486
240.023	1.74058
240.023	1.74058
239.842	1.73374
239.662	1.72674
239.482	1.71968
239.482	1.71968
239.465	1.71731
239.442	1.71495
239.417	1.71259
239.417	1.71259
239.327	1.7126
239.238	1.7126
239.149	1.71261
239.149	1.71261
239.109	1.70812
239.067	1.70348
239.019	1.69877
239.019	1.69877
238.792	1.69065
238.625	1.68409
238.483	1.67956
238.483	1.67956
238.198	1.66704
238.047	1.66118
237.898	1.65698
237.898	1.65698
237.873	1.65461
237.847	1.65225
237.822	1.64989
237.822	1.64989
237.206	1.62867
236.721	1.6118
236.061	1.59058
236.061	1.59058
236.023	1.58778
235.982	1.58483
235.936	1.58181
235.936	1.58181
235.765	1.57859
235.497	1.57178
234.906	1.55554
234.906	1.55554
234.532	1.54349
234.293	1.53637
234.142	1.53128
234.142	1.53128
233.909	1.5285
233.674	1.52556
233.433	1.52255
233.433	1.52255
233.311	1.51976
233.186	1.51682
233.056	1.5138
233.056	1.5138
232.573	1.51264
232.136	1.51224
231.37	1.51223
231.37	1.51223
231.167	1.51437
230.961	1.51666
230.75	1.51903
230.75	1.51903
230.569	1.51948
230.382	1.52008
230.193	1.52075
230.193	1.52075
229.814	1.52862
229.41	1.53649
229.158	1.5421
229.158	1.5421
228.949	1.54527
228.635	1.55159
227.947	1.5665
227.947	1.5665
227.38	1.58222
226.659	1.60179
225.621	1.6315
225.621	1.6315
225.288	1.64401
225.121	1.64945
224.977	1.65249
224.977	1.65249
224.906	1.65654
224.83	1.6606
224.752	1.66466
224.752	1.66466
224.501	1.67346
224.246	1.68226
223.989	1.69105
223.989	1.69105
223.702	1.70496
223.464	1.71571
223.178	1.72961
223.178	1.72961
223.043	1.73453
222.855	1.74149
222.602	1.7489
222.602	1.7489
222.588	1.75126
222.569	1.75363
222.548	1.75599
222.548	1.75599
222.396	1.76154
222.266	1.76715
222.151	1.77156
222.151	1.77156
222.026	1.77801
221.966	1.78213
221.922	1.78745
221.922	1.78745
221.768	1.79321
221.615	1.79905
221.462	1.80504
221.462	1.80504
221.448	1.80717
221.429	1.80944
221.408	1.8118
221.408	1.8118
221.209	1.82098
220.993	1.83249
220.68	1.84866
220.68	1.84866
220.473	1.86036
220.306	1.8692
220.172	1.87841
220.172	1.87841
219.954	1.88664
219.775	1.89478
219.666	1.89939
