Uv/Vis Spectrum: Furfurylalcohol
Formula: C5H6O2
CAS: 98-00-0
Melting point: -31
Boiling point: 171
Instrument: Beckman DU
Origin: INSTITUTE OF ENERGY PROBLEMS OF CHEMICAL PHYSICS, RAS
Wavelength (nm)	Logarithm epsilon
205.986	2.74282
205.986	2.74282
206.018	2.74479
206.05	2.74675
206.082	2.74872
206.082	2.74872
206.54	2.75827
206.87	2.76554
207.087	2.76923
207.087	2.76923
207.358	2.77583
207.841	2.78593
208.189	2.79423
208.189	2.79423
208.34	2.79671
208.662	2.80317
209.388	2.8165
210.536	2.84014
210.74	2.84208
210.951	2.84496
211.253	2.84969
211.734	2.85717
212.479	2.86831
212.479	2.86831
212.725	2.8703
212.941	2.87295
213.268	2.87591
213.268	2.87591
213.348	2.87852
213.671	2.88242
215.572	2.90007
216.066	2.90224
216.562	2.90441
217.059	2.90659
218.113	2.904
218.725	2.90112
219.08	2.89868
219.483	2.89459
220.52	2.87918
220.871	2.87393
221.076	2.8699
221.313	2.86367
221.313	2.86367
221.649	2.85717
221.927	2.85053
222.133	2.84677
222.133	2.84677
222.904	2.82661
223.234	2.81708
223.409	2.81002
223.409	2.81002
223.663	2.80328
223.999	2.79181
224.495	2.7757
225.433	2.73713
225.494	2.73591
225.616	2.73159
225.883	2.72075
226.381	2.69996
227.194	2.66579
227.194	2.66579
227.716	2.64101
228.145	2.61955
228.489	2.60172
228.752	2.58783
228.94	2.57817
229.059	2.57305
229.059	2.57305
229.278	2.55866
229.496	2.54428
229.712	2.52989
230.432	2.46338
230.488	2.45671
230.488	2.45671
230.549	2.45234
230.631	2.44327
230.801	2.4265
230.801	2.4265
231.005	2.40241
231.144	2.38463
231.284	2.3644
231.488	2.33295
231.488	2.33295
231.52	2.33102
231.553	2.32916
231.586	2.32742
231.586	2.32742
231.614	2.3184
231.703	2.30197
231.926	2.26407
231.926	2.26407
231.995	2.25465
232.138	2.22775
233.056	2.06283
233.307	2.02426
233.485	1.9967
233.603	1.97826
233.676	1.96706
233.719	1.9612
233.744	1.9588
233.744	1.9588
233.992	1.92025
234.178	1.89178
234.317	1.87094
234.422	1.85527
234.507	1.84235
234.586	1.82972
235.161	1.75166
235.171	1.74778
235.179	1.74395
235.186	1.74025
235.186	1.74025
235.212	1.7376
235.246	1.73279
235.297	1.72469
235.372	1.71219
235.481	1.69418
235.631	1.66955
235.83	1.63717
236.088	1.59593
236.412	1.54473
236.412	1.54473
236.449	1.53686
236.495	1.52834
236.558	1.51743
236.646	1.50239
236.768	1.48148
236.932	1.45296
237.146	1.41508
237.419	1.36609
237.81	1.30277
237.876	1.29501
237.942	1.28731
238.007	1.27974
238.007	1.27974
238.058	1.26724
238.107	1.2548
238.155	1.24248
238.155	1.24248
238.223	1.23532
238.261	1.22754
238.301	1.22222
238.301	1.22222
238.414	1.19947
238.508	1.18131
238.593	1.16529
238.681	1.149
238.781	1.12999
238.905	1.10584
239.064	1.07411
239.064	1.07411
239.198	1.03966
