Uv/Vis Spectrum: 5-(phenylmethyl)thio-[1,2,4]triazolo[1,5-c]pyrimidine-7-amine
Formula: C12H11N5S
CAS: 98322-49-7
Melting point: 195
Instrument: Beckman-26
Origin: INSTITUTE OF ENERGY PROBLEMS OF CHEMICAL PHYSICS, RAS
Wavelength (nm)	Logarithm epsilon
217.627	4.262
218.427	4.232
219.227	4.203
220.027	4.177
220.827	4.151
221.627	4.127
222.427	4.105
223.227	4.086
224.027	4.071
224.827	4.061
225.627	4.055
226.427	4.056
227.227	4.062
228.027	4.073
228.827	4.087
229.627	4.102
230.427	4.114
230.459	4.115
231.259	4.132
232.059	4.146
232.859	4.159
233.659	4.17
234.459	4.181
235.259	4.191
236.059	4.2
236.859	4.209
237.659	4.216
238.459	4.221
239.259	4.224
240.059	4.223
240.859	4.22
241.659	4.213
242.459	4.201
243.259	4.185
244.059	4.163
244.859	4.137
245.659	4.105
246.33	4.074
247.13	4.039
247.93	4.006
248.73	3.974
249.53	3.944
250.33	3.918
251.13	3.894
251.93	3.875
252.73	3.86
253.53	3.85
254.33	3.845
255.13	3.847
255.93	3.855
256.73	3.869
257.53	3.889
258.33	3.913
259.331	3.944
260.131	3.964
260.931	3.985
261.731	4.005
262.531	4.025
263.331	4.044
264.131	4.063
264.931	4.08
265.731	4.097
266.531	4.113
267.331	4.127
268.131	4.141
268.931	4.153
269.731	4.165
270.531	4.174
271.331	4.183
272.131	4.19
272.931	4.194
273.731	4.196
274.531	4.196
275.331	4.192
276.131	4.183
276.931	4.17
277.731	4.151
278.579	4.124
279.379	4.088
280.179	4.043
280.979	3.993
281.779	3.94
282.579	3.888
283.379	3.837
284.179	3.789
284.979	3.744
285.779	3.7
286.579	3.657
287.359	3.611
288.159	3.58
288.959	3.561
289.759	3.549
290.559	3.544
291.359	3.543
292.159	3.545
292.959	3.548
293.759	3.552
294.559	3.557
295.359	3.561
296.159	3.567
296.959	3.573
297.759	3.581
297.827	3.583
298.627	3.593
299.427	3.601
300.227	3.608
301.027	3.615
301.827	3.622
302.627	3.628
303.427	3.634
304.227	3.639
305.027	3.645
305.827	3.65
306.627	3.656
307.427	3.661
308.227	3.668
309.027	3.674
309.827	3.681
310.327	3.685
313.475	3.698
316.973	3.698
319.772	3.685
322.22	3.66
323.97	3.63
326.068	3.604
327.817	3.57
329.567	3.536
330.966	3.502
332.365	3.468
333.414	3.434
334.814	3.4
335.863	3.366
337.612	3.314
338.662	3.28
340.061	3.246
341.11	3.212
342.16	3.174
343.209	3.14
344.259	3.105
