Uv/Vis Spectrum: [6-amino-2-[(phenylmethyl)thio]-4-pyrimidinyl](phenylmethyl)cyanamide
Formula: C19H17N5S
CAS: 98322-50-0
Melting point: 185
Instrument: Beckman-26
Origin: INSTITUTE OF ENERGY PROBLEMS OF CHEMICAL PHYSICS, RAS
Wavelength (nm)	Logarithm epsilon
216.766	4.56
217.566	4.575
218.366	4.587
219.166	4.597
219.966	4.604
220.766	4.609
221.566	4.611
222.366	4.612
223.166	4.61
223.966	4.606
224.766	4.6
225.566	4.593
226.366	4.584
227.166	4.573
227.966	4.56
228.766	4.546
229.566	4.531
230.366	4.515
231.166	4.497
231.966	4.478
232.646	4.459
233.446	4.445
234.246	4.43
235.046	4.413
235.846	4.396
236.646	4.378
237.446	4.36
238.246	4.341
239.046	4.322
239.846	4.302
240.646	4.282
241.446	4.263
242.246	4.243
243.046	4.224
243.846	4.205
244.646	4.186
245.446	4.168
246.246	4.151
247.046	4.135
247.195	4.134
247.995	4.111
248.795	4.09
249.595	4.071
250.395	4.055
251.195	4.042
251.995	4.033
252.795	4.029
253.635	4.031
254.435	4.038
255.235	4.044
256.035	4.047
256.835	4.046
257.635	4.041
258.435	4.031
259.212	4.018
260.012	4.01
260.812	4.002
261.612	3.992
262.412	3.981
263.212	3.968
264.012	3.955
264.812	3.94
265.612	3.924
266.412	3.907
267.165	3.89
267.965	3.871
268.765	3.854
269.565	3.839
270.365	3.825
271.165	3.813
271.965	3.804
272.765	3.8
273.565	3.802
274.368	3.813
275.168	3.821
275.968	3.826
276.768	3.827
277.568	3.823
278.368	3.816
279.168	3.804
279.968	3.789
280.768	3.77
281.568	3.747
282.368	3.72
283.168	3.691
283.968	3.658
284.768	3.623
285.568	3.585
286.368	3.545
287.168	3.504
287.968	3.46
288.768	3.416
289.568	3.37
290.368	3.324
291.168	3.279
291.968	3.234
292.768	3.189
293.568	3.147
