Uv/Vis Spectrum: Phenol, p-tert-butyl-
Formula: C10H14O
CAS: 98-54-4
Melting point: 98
Boiling point: 237
Instrument: Beckman Spectrophotometer
Origin: INSTITUTE OF ENERGY PROBLEMS OF CHEMICAL PHYSICS, RAS
Wavelength (nm)	Logarithm epsilon
220.897	3.5089
221.005	3.5089
221.217	3.50216
221.325	3.50216
221.536	3.49415
221.653	3.49359
221.854	3.48599
221.971	3.48541
222.181	3.47645
222.289	3.47644
222.498	3.46735
222.605	3.46669
222.815	3.45799
222.922	3.45738
223.131	3.44788
223.238	3.44719
223.444	3.43548
223.561	3.43478
223.757	3.42273
223.874	3.422
224.07	3.40958
224.187	3.4089
224.39	3.39386
224.496	3.39315
224.7	3.37828
224.807	3.37754
225.009	3.3606
225.115	3.35984
225.311	3.33805
225.429	3.33724
225.615	3.3151
225.732	3.31425
225.915	3.28722
226.032	3.28631
226.228	3.26038
226.335	3.25942
226.53	3.23076
226.636	3.22962
226.833	3.20116
226.941	3.20114
227.136	3.16821
227.253	3.1669
227.442	3.13651
227.559	3.1351
227.754	3.10939
227.871	3.10789
228.075	3.07887
228.182	3.0774
228.381	3.03959
228.488	3.03799
228.687	2.9964
228.794	2.99463
228.995	2.95253
229.113	2.95037
229.307	2.91018
229.424	2.90801
229.622	2.87079
229.739	2.86842
229.951	2.8354
230.059	2.83538
230.271	2.79992
230.377	2.79685
230.592	2.76725
230.699	2.76395
230.912	2.72511
231.018	2.7218
231.234	2.68959
231.352	2.68598
231.557	2.65128
231.676	2.65124
231.892	2.61351
232	2.61347
232.216	2.57167
232.322	2.56695
232.54	2.5259
232.646	2.52064
232.866	2.48678
232.972	2.48045
233.192	2.44315
233.31	2.44308
233.519	2.40228
233.638	2.40221
233.859	2.37216
234.073	2.357
234.412	2.31511
234.52	2.31503
234.849	2.27791
235.073	2.259
235.181	2.2589
235.51	2.21641
235.735	2.2055
235.961	2.19431
236.292	2.16998
236.623	2.13157
236.848	2.11694
237.298	2.08897
237.512	2.07283
237.964	2.05725
238.403	2.02337
238.855	2.00588
239.52	1.96716
242.428	1.9427
244.789	1.97663
246.686	1.99324
247.249	2.02794
248.478	2.04213
249.159	2.07311
249.828	2.08666
250.283	2.11499
251.059	2.12718
251.514	2.15306
251.957	2.16462
252.411	2.18842
253.082	2.21077
253.418	2.23132
254.098	2.24177
254.326	2.26103
254.661	2.27109
255.225	2.29856
255.56	2.30694
255.896	2.32431
256.123	2.33229
256.459	2.3487
256.794	2.35617
257.023	2.37179
257.25	2.37895
257.586	2.39371
257.814	2.40122
258.259	2.42181
258.486	2.4282
258.715	2.44146
258.931	2.44758
259.16	2.46027
259.388	2.47261
259.615	2.4783
259.725	2.4902
259.954	2.50117
260.181	2.50704
261.878	2.58292
261.99	2.59672
262.217	2.60144
262.327	2.61
262.554	2.61458
262.665	2.62742
262.893	2.63141
263.003	2.63981
263.231	2.64762
263.352	2.65571
263.568	2.65983
263.69	2.67142
263.918	2.67503
264.027	2.68263
264.366	2.69706
264.477	2.70771
264.704	2.71137
264.933	2.718
265.043	2.72489
265.392	2.738
265.504	2.7511
265.734	2.76049
265.845	2.7697
266.073	2.7758
266.185	2.78754
266.414	2.79339
266.525	2.80194
266.983	2.81585
267.093	2.82136
267.32	2.82391
267.779	2.83967
268.343	2.84726
268.561	2.85236
268.906	2.85472
269.017	2.86215
269.579	2.86464
269.807	2.86931
270.142	2.87181
270.371	2.87664
271.145	2.87392
271.6	2.87868
271.829	2.88342
272.049	2.89481
272.278	2.89939
272.4	2.9061
272.616	2.90842
272.847	2.91708
273.074	2.91913
273.185	2.92555
273.413	2.92777
273.524	2.93406
273.751	2.93603
273.982	2.94436
274.21	2.94825
274.32	2.95232
274.548	2.95422
274.658	2.95823
274.886	2.96219
275.014	2.97762
275.236	2.98877
275.364	3.00502
275.585	3.01382
275.709	3.02246
276.152	3.02404
276.375	3.01888
276.492	3.0172
276.693	2.99402
276.811	2.99224
277.021	2.96578
277.128	2.96368
277.336	2.93132
277.443	2.92905
277.652	2.89609
277.759	2.89364
277.971	2.86279
278.077	2.86014
278.293	2.83721
278.411	2.83465
278.617	2.81297
278.735	2.81026
278.943	2.79293
279.061	2.79009
279.281	2.77514
279.388	2.77218
279.609	2.75659
279.715	2.7535
280.046	2.7438
280.392	2.74683
280.505	2.76268
280.738	2.78083
280.858	2.81242
281.09	2.82605
281.21	2.85461
281.443	2.86936
281.565	2.89969
281.8	2.91744
281.935	2.949
282.166	2.9764
282.302	3.00391
282.742	3.00211
282.956	2.98191
283.063	2.98008
283.275	2.95478
283.392	2.95263
283.586	2.91286
283.704	2.9105
283.906	2.86148
284.013	2.85882
284.108	2.83049
284.22	2.81425
284.319	2.79153
284.426	2.78869
284.628	2.72221
284.746	2.71886
284.94	2.64795
285.058	2.64398
285.26	2.54812
285.367	2.54313
285.575	2.45145
285.683	2.45139
285.892	2.34375
285.999	2.33493
286.217	2.27268
286.324	2.26226
286.544	2.19878
286.662	2.19866
286.872	2.13839
286.99	2.13825
287.319	2.06657
287.427	2.06642
287.873	1.98029
288.097	1.93993
288.311	1.89545
288.653	1.84806
288.867	1.81955
289.21	1.76249
289.542	1.69332
289.757	1.69262
290.207	1.60969
290.54	1.56331
291.432	1.44493
291.882	1.28536
