Uv/Vis Spectrum: Diazene, bis(2,3,5,6-tetrafluoro-4-(trifluoromethyl)phenyl)-1-oxide
Formula: C14F14N2O
CAS: 98583-25-6
Melting point: 84-85
Instrument: SF-16
Origin: INSTITUTE OF ENERGY PROBLEMS OF CHEMICAL PHYSICS, RAS
Wavelength (nm)	Logarithm epsilon
215.01	4.112
217.6	4.071
220.7	4.035
224.84	4.01
229.5	4.02
234.16	4.025
238.82	4.015
242.44	3.99
246.06	3.964
249.17	3.928
252.27	3.893
254.86	3.857
257.97	3.821
260.56	3.785
265.21	3.775
269.35	3.801
272.98	3.826
276.6	3.857
280.74	3.877
284.88	3.893
289.54	3.887
294.2	3.872
298.34	3.857
301.44	3.826
304.55	3.796
307.65	3.76
310.76	3.724
313.86	3.688
316.97	3.653
319.56	3.612
322.15	3.576
325.25	3.54
327.84	3.499
330.43	3.459
333.01	3.418
335.08	3.377
337.67	3.341
339.74	3.3
341.81	3.26
344.4	3.219
346.99	3.178
349.06	3.137
351.13	3.096
353.2	3.055
354.75	3.015
356.82	2.974
358.37	2.933
360.44	2.892
362.52	2.851
364.07	2.81
366.14	2.769
368.21	2.729
369.76	2.688
371.31	2.647
372.87	2.606
374.42	2.565
375.97	2.524
377.52	2.484
379.08	2.443
380.63	2.402
382.18	2.361
383.74	2.32
385.29	2.274
386.84	2.233
388.39	2.193
389.95	2.147
