Uv/Vis Spectrum: p-Toluenesulfonyl chloride
Formula: C7H7ClO2S
CAS: 98-59-9
Melting point: 71
Instrument: Unicam SP 800
Origin: INSTITUTE OF ENERGY PROBLEMS OF CHEMICAL PHYSICS, RAS
Wavelength (nm)	Logarithm epsilon
201.52	4.123
202.88	4.134
204.4	4.13
205.59	4.11
206.6	4.086
207.28	4.059
208.13	4.035
208.8	4.008
209.31	3.981
209.99	3.954
210.5	3.926
211	3.899
211.51	3.872
212.02	3.845
212.53	3.818
213.04	3.79
213.54	3.76
214.05	3.729
214.39	3.699
214.73	3.668
215.24	3.641
215.41	3.61
215.91	3.583
216.42	3.556
217.1	3.529
217.61	3.502
218.62	3.478
219.98	3.464
221.5	3.471
222.52	3.492
223.53	3.512
224.38	3.539
225.23	3.563
225.73	3.59
226.58	3.617
227.09	3.644
227.77	3.672
228.44	3.699
228.95	3.726
229.46	3.753
230.31	3.78
230.81	3.807
231.66	3.835
232.51	3.862
233.35	3.889
234.37	3.913
235.22	3.937
236.23	3.957
237.25	3.977
238.6	3.994
239.96	4.005
241.48	4.011
243	4.008
244.53	3.998
245.37	3.974
246.56	3.957
247.57	3.937
248.42	3.909
249.27	3.886
249.94	3.858
250.62	3.831
251.13	3.804
251.64	3.774
251.98	3.743
252.48	3.716
252.99	3.685
253.5	3.655
253.84	3.624
254.35	3.597
254.69	3.566
255.19	3.539
255.7	3.512
256.21	3.485
256.89	3.458
257.73	3.43
258.58	3.407
259.09	3.379
259.93	3.352
260.61	3.325
261.12	3.298
261.63	3.271
262.47	3.244
262.98	3.216
263.83	3.193
264.5	3.165
265.52	3.142
266.37	3.118
267.38	3.097
268.57	3.077
269.75	3.057
271.11	3.04
272.29	3.023
273.31	2.999
274.32	2.975
274.83	2.948
275.51	2.921
276.02	2.894
277.03	2.87
278.39	2.853
279.4	2.829
280.42	2.805
281.1	2.778
282.62	2.683
283.64	2.561
284.14	2.482
284.65	2.394
285.16	2.299
285.67	2.204
286.18	2.126
286.68	2.034
287.19	1.946
287.7	1.83
288.21	1.759
288.72	1.674
289.22	1.589
289.73	1.511
290.24	1.433
290.75	1.338
291.25	1.259
291.76	1.14
292.27	1.052
292.78	0.96
293.29	0.882
293.79	0.808
294.3	0.743
294.81	0.665
295.32	0.587
295.83	0.495
296.33	0.427
