Uv/Vis Spectrum: 4-tert-Butyltoluene
Formula: C11H16
CAS: 98-51-1
Melting point: - 52
Boiling point: 190
Instrument: unknown
Origin: INSTITUTE OF ENERGY PROBLEMS OF CHEMICAL PHYSICS, RAS
Wavelength (nm)	Logarithm epsilon
228.55	1.948
228.6	1.946
228.64	1.942
228.68	1.938
228.72	1.933
228.76	1.929
228.81	1.925
228.84	1.917
228.88	1.904
228.93	1.887
229.02	1.861
229.32	1.777
229.61	1.707
229.91	1.632
230.2	1.558
230.5	1.486
230.8	1.421
231.09	1.361
231.39	1.31
231.69	1.272
231.98	1.231
232.28	1.197
232.58	1.185
232.87	1.185
233.23	1.195
233.57	1.21
233.83	1.223
234.1	1.235
234.4	1.25
234.65	1.262
234.95	1.282
235.24	1.301
235.6	1.325
235.84	1.345
236.22	1.368
236.43	1.384
236.73	1.407
237.02	1.427
237.32	1.448
237.6	1.466
237.9	1.486
238.21	1.503
238.5	1.52
238.8	1.537
239.1	1.558
239.66	1.598
239.99	1.615
240.27	1.634
240.58	1.649
240.88	1.666
241.17	1.685
241.47	1.704
241.76	1.718
242.06	1.735
242.36	1.752
242.69	1.772
242.95	1.783
243.25	1.801
243.57	1.82
243.84	1.835
244.14	1.851
244.43	1.864
244.71	1.88
245.02	1.895
245.32	1.909
245.62	1.927
245.91	1.94
246.21	1.95
246.51	1.966
246.8	1.978
247.1	1.993
247.43	2.006
247.69	2.017
247.99	2.031
248.29	2.043
248.58	2.058
248.88	2.074
249.17	2.092
249.47	2.105
249.77	2.126
250.06	2.14
250.36	2.156
250.66	2.173
250.95	2.191
251.25	2.208
251.55	2.219
251.84	2.221
252.14	2.223
252.43	2.223
252.73	2.223
253.03	2.223
253.32	2.223
253.62	2.227
253.92	2.231
254.21	2.237
254.51	2.248
254.81	2.259
255.1	2.277
255.4	2.297
255.7	2.315
255.99	2.333
256.29	2.35
256.58	2.365
256.88	2.38
257.18	2.395
257.47	2.407
257.9	2.427
257.94	2.427
257.98	2.428
258.02	2.429
258.07	2.43
258.24	2.435
258.41	2.441
258.57	2.445
258.74	2.443
258.91	2.436
259.08	2.433
259.25	2.424
259.42	2.416
259.59	2.407
259.72	2.402
259.93	2.397
260.18	2.395
260.44	2.395
260.61	2.396
260.78	2.398
260.96	2.4
261.12	2.402
261.28	2.404
261.45	2.407
261.62	2.409
261.79	2.413
261.96	2.417
262.13	2.42
262.3	2.421
262.47	2.427
262.64	2.435
262.81	2.444
262.98	2.457
263.08	2.466
263.13	2.473
263.15	2.477
263.21	2.488
263.26	2.495
263.28	2.502
263.3	2.507
263.32	2.511
263.32	2.514
263.36	2.525
263.44	2.543
263.53	2.558
263.61	2.569
263.7	2.58
263.78	2.59
263.87	2.594
263.95	2.601
264.04	2.607
264.12	2.61
264.21	2.612
264.29	2.612
264.38	2.612
264.48	2.606
264.54	2.592
264.63	2.583
264.71	2.571
264.8	2.563
264.88	2.556
264.97	2.551
265.05	2.545
265.14	2.542
265.18	2.541
265.35	2.537
265.52	2.536
265.69	2.536
265.86	2.536
266.03	2.539
266.2	2.544
266.35	2.549
266.53	2.553
266.71	2.549
266.87	2.536
267.04	2.514
267.21	2.492
267.38	2.474
267.55	2.449
267.65	2.441
267.8	2.424
267.98	2.407
268.26	2.383
268.41	2.368
268.57	2.354
268.74	2.338
268.91	2.325
269.08	2.313
269.24	2.3
269.42	2.291
269.58	2.284
269.75	2.276
269.92	2.271
270.09	2.267
270.26	2.265
270.43	2.264
270.6	2.265
270.77	2.27
270.94	2.277
271.11	2.289
271.3	2.309
271.48	2.336
271.66	2.37
271.79	2.405
271.87	2.433
271.93	2.467
271.97	2.499
272.02	2.531
272.05	2.556
272.09	2.584
272.13	2.618
272.17	2.643
272.21	2.657
272.25	2.662
272.3	2.668
272.36	2.672
272.45	2.674
272.54	2.674
272.63	2.673
272.72	2.671
272.82	2.665
272.89	2.655
272.93	2.643
273	2.615
273.06	2.59
273.13	2.561
273.2	2.534
273.28	2.502
273.37	2.47
273.48	2.437
273.65	2.395
273.82	2.359
273.99	2.329
