Uv/Vis Spectrum: .alpha.-Methylstyrene
Formula: C9H10
CAS: 98-83-9
Melting point: -23.2
Boiling point: 165.4
Instrument: Unicam SP 500
Origin: INSTITUTE OF ENERGY PROBLEMS OF CHEMICAL PHYSICS, RAS
Wavelength (nm)	Logarithm epsilon
212.061	4.12168
212.278	4.11415
212.476	4.10623
212.697	4.0945
212.9	4.08275
213.141	4.04311
213.352	4.0394
213.55	4.03148
213.772	4.01974
213.975	4.008
214.173	4.00008
214.389	3.99255
214.582	3.98845
214.98	3.98485
215.926	4.00527
215.959	3.98119
216.14	3.9855
216.942	3.97409
217.14	3.96617
217.343	3.95443
217.565	3.94269
217.779	3.92292
218.001	3.91119
218.423	3.87585
218.677	3.84042
218.933	3.78892
219.209	3.73743
219.423	3.71766
219.631	3.70209
219.853	3.69036
220.056	3.67862
220.272	3.67071
220.475	3.65896
220.668	3.65524
221.066	3.65126
221.647	3.65159
222.422	3.66005
222.804	3.6683
222.986	3.67223
223.168	3.67616
223.368	3.68048
223.545	3.68823
223.74	3.69637
223.916	3.7045
224.093	3.71264
224.293	3.71657
224.47	3.72471
224.652	3.72863
224.852	3.73257
225.034	3.73688
225.587	3.75708
225.788	3.76102
225.964	3.76915
226.165	3.77309
226.341	3.78122
226.523	3.78515
226.724	3.78909
226.905	3.7934
227.087	3.79733
227.282	3.80547
227.464	3.8094
227.841	3.82147
228.023	3.82578
228.4	3.83785
228.601	3.84178
228.777	3.84992
228.959	3.85384
229.336	3.86591
230.459	3.89447
230.659	3.89841
230.841	3.90272
231.036	3.91048
231.218	3.91479
231.983	3.9309
232.17	3.93101
232.552	3.93925
234.068	3.96765
234.451	3.97589
235.584	3.99642
235.771	3.99653
236.723	4.01275
237.111	4.01717
238.073	4.02536
238.643	4.03372
238.843	4.03765
239.218	4.03787
239.605	4.04229
243.487	4.05251
245.439	4.04939
246.024	4.0459
246.61	4.04202
247.008	4.03842
247.2	4.0347
247.599	4.03072
247.791	4.027
248.588	4.01941
248.986	4.01581
249.577	4.00811
249.769	4.00439
250.168	4.00041
250.36	3.99669
251.162	3.98528
252.565	3.95853
253.156	3.95083
253.349	3.94673
253.56	3.94302
253.752	3.93931
254.565	3.91987
255.167	3.90414
255.976	3.87323
256.193	3.86532
256.396	3.85358
256.594	3.84565
256.816	3.83392
257.014	3.826
257.236	3.81426
258.251	3.78308
258.449	3.77555
258.652	3.76342
258.868	3.75589
259.072	3.74415
259.27	3.73622
259.491	3.72449
259.684	3.72077
260.291	3.70122
260.507	3.69331
260.716	3.67774
261.13	3.66191
261.328	3.65399
261.55	3.64226
262.173	3.61086
262.354	3.61517
262.37	3.60332
262.769	3.59933
262.977	3.58377
263.199	3.57203
263.402	3.56029
263.624	3.54855
264.025	3.52889
264.247	3.51715
264.656	3.50553
264.859	3.49378
265.062	3.48204
265.284	3.46992
265.498	3.45053
266.136	3.40728
266.364	3.39134
266.583	3.36775
266.786	3.35601
267.232	3.31648
267.459	3.30092
267.678	3.27732
267.876	3.2694
268.109	3.24964
268.355	3.20617
268.593	3.18259
268.812	3.159
269.026	3.13922
269.477	3.09587
269.675	3.08795
269.907	3.06857
270.121	3.0488
270.332	3.04509
270.557	3.01729
270.782	2.98949
271.041	2.95024
271.244	2.9385
271.877	2.89907
272.104	2.88351
272.323	2.85992
272.968	2.81247
273.184	2.80494
273.398	2.78517
273.607	2.76922
274.451	2.72608
274.67	2.70249
274.887	2.69458
275.106	2.67098
275.723	2.64379
275.945	2.63205
276.148	2.62031
276.376	2.60437
276.568	2.60066
276.766	2.59273
277.793	2.55353
278.009	2.546
278.207	2.53808
278.404	2.53016
278.615	2.52645
278.813	2.51853
279.024	2.51482
279.222	2.5069
279.415	2.50318
279.824	2.49155
280.243	2.4719
280.436	2.46818
280.652	2.46027
280.85	2.45235
281.695	2.40921
282.09	2.39375
282.312	2.38202
282.521	2.36607
282.743	2.35433
283.16	2.32282
283.387	2.30726
283.601	2.28749
283.809	2.27154
284.041	2.25216
284.488	2.21263
284.686	2.20471
284.889	2.19297
285.111	2.18123
285.314	2.16949
285.531	2.16158
285.734	2.14983
285.931	2.14229
286.153	2.13056
286.589	2.09905
286.792	2.08731
287.006	2.06754
287.222	2.05963
287.431	2.04406
288.436	2.02053
288.628	2.01681
289.232	2.01332
289.618	2.00551
289.839	1.99377
290.048	1.97782
290.302	1.94239
290.542	1.90313
290.745	1.89138
290.978	1.87162
