Uv/Vis Spectrum: Benzene, (1-methylethyl)-
Formula: C9H12
CAS: 98-82-8
Boiling point: 152.4
Instrument: unknown
Origin: INSTITUTE OF ENERGY PROBLEMS OF CHEMICAL PHYSICS, RAS
Wavelength (nm)	Logarithm epsilon
223.61	1.774
223.66	1.774
223.7	1.774
223.74	1.774
223.87	1.711
224.12	1.673
224.38	1.636
224.64	1.587
224.89	1.547
225.15	1.502
225.4	1.453
225.66	1.405
225.91	1.359
226.17	1.317
226.42	1.27
226.68	1.239
226.93	1.206
227.19	1.157
227.46	1.14
227.62	1.128
227.85	1.113
228.13	1.107
228.46	1.103
228.76	1.104
228.94	1.107
229.23	1.117
229.48	1.131
229.7	1.148
229.96	1.164
230.3	1.185
230.64	1.209
231.06	1.244
231.51	1.269
231.91	1.294
232.33	1.316
232.52	1.328
232.8	1.342
233.05	1.359
233.31	1.367
233.54	1.381
233.82	1.398
234.07	1.41
234.33	1.419
234.59	1.433
234.83	1.45
235.1	1.466
235.35	1.479
235.61	1.491
235.86	1.502
236.12	1.519
236.37	1.53
236.63	1.547
236.84	1.556
237.14	1.572
237.42	1.583
237.65	1.591
237.95	1.601
238.16	1.61
238.41	1.619
238.65	1.628
238.92	1.64
239.18	1.657
239.43	1.673
239.69	1.685
239.94	1.703
240.2	1.718
240.45	1.732
240.71	1.745
240.96	1.761
241.22	1.777
241.47	1.792
241.73	1.81
241.98	1.821
242.24	1.824
242.49	1.829
242.75	1.832
243	1.835
243.29	1.84
243.52	1.845
243.77	1.848
244.03	1.856
244.28	1.861
244.54	1.871
244.79	1.886
245.05	1.904
245.3	1.918
245.56	1.938
245.81	1.948
246.07	1.967
246.32	1.982
246.58	1.997
246.83	2.01
247.09	2.023
247.34	2.03
247.6	2.038
247.85	2.045
248.11	2.046
248.36	2.046
248.62	2.043
248.87	2.04
249.13	2.036
249.38	2.036
249.64	2.038
249.89	2.045
250.15	2.055
250.4	2.067
250.66	2.081
250.91	2.096
251.17	2.112
251.42	2.132
251.68	2.145
251.93	2.165
252.19	2.181
252.45	2.192
252.7	2.201
252.96	2.205
253.21	2.205
253.47	2.203
253.72	2.2
253.98	2.196
254.23	2.19
254.49	2.185
254.74	2.178
255	2.174
255.25	2.169
255.51	2.166
255.76	2.162
256.02	2.165
256.27	2.17
256.53	2.18
256.78	2.19
257.04	2.207
257.29	2.225
257.55	2.242
257.8	2.263
258.06	2.278
258.14	2.286
258.19	2.287
258.23	2.288
258.27	2.29
258.31	2.291
258.36	2.292
258.48	2.295
258.65	2.296
258.82	2.294
258.99	2.289
259.16	2.288
259.33	2.284
259.5	2.28
259.67	2.276
259.84	2.27
260.01	2.27
260.18	2.277
260.35	2.286
260.52	2.289
260.69	2.29
260.86	2.288
261.03	2.285
261.2	2.28
261.37	2.265
261.55	2.247
261.72	2.23
261.89	2.208
262.06	2.19
262.23	2.166
262.4	2.147
262.57	2.129
262.74	2.121
262.91	2.117
263.08	2.115
263.25	2.122
263.42	2.133
263.59	2.141
263.76	2.152
263.93	2.158
264.1	2.16
264.27	2.16
264.44	2.157
264.61	2.152
264.78	2.145
264.95	2.132
265.12	2.12
265.29	2.107
265.46	2.096
265.63	2.083
265.8	2.066
265.97	2.056
266.14	2.051
266.31	2.056
266.48	2.066
266.65	2.075
266.82	2.094
266.99	2.11
267.16	2.126
267.33	2.137
267.5	2.155
267.67	2.163
267.84	2.169
268.01	2.169
268.18	2.167
268.35	2.156
268.52	2.11
268.69	2.058
268.86	2.015
269.03	1.958
269.2	1.904
269.37	1.856
269.54	1.795
269.71	1.738
269.88	1.681
270.05	1.61
270.22	1.582
270.39	1.525
270.56	1.485
270.73	1.447
270.9	1.405
271.07	1.367
271.24	1.334
271.41	1.299
271.58	1.28
271.75	1.228
271.92	1.194
272.09	1.17
272.26	1.117
272.43	1.103
272.6	1.088
272.77	1.04
272.94	1.023
273.11	1.005
273.62	0.925
273.79	0.903
273.96	0.854
274.13	0.799
274.3	0.769
