Uv/Vis Spectrum: Acetophenone
Formula: C8H8O
CAS: 98-86-2
Melting point: 20
Boiling point: 202
Instrument: n.i.g.
Origin: INSTITUTE OF ENERGY PROBLEMS OF CHEMICAL PHYSICS, RAS
Wavelength (nm)	Logarithm epsilon
179.44	4.25085
179.704	4.26402
179.953	4.27679
180.19	4.2892
180.413	4.30126
180.624	4.313
180.824	4.32443
181.012	4.33556
181.189	4.34641
181.355	4.35701
181.512	4.36734
181.659	4.37744
181.797	4.38732
181.926	4.39697
182.048	4.40641
182.162	4.41566
182.269	4.42472
182.37	4.43359
182.464	4.44229
182.553	4.45082
182.637	4.45919
182.717	4.46741
182.792	4.47548
182.863	4.4834
182.932	4.49118
182.998	4.49883
183.061	4.50636
183.123	4.51376
183.184	4.52104
183.244	4.5282
183.304	4.53526
183.365	4.54221
183.426	4.54905
183.488	4.55579
183.488	4.55579
184.112	4.56139
184.634	4.57032
185.051	4.58036
185.363	4.58948
185.567	4.59581
185.567	4.59581
185.923	4.59752
186.322	4.59848
187.109	4.59949
187.109	4.59949
187.481	4.59681
187.741	4.59392
188.28	4.59082
188.28	4.59082
189.215	4.59504
190.067	4.59784
191.343	4.5988
191.343	4.5988
191.483	4.59659
191.624	4.59436
191.764	4.59212
191.764	4.59212
191.835	4.58585
191.906	4.57948
191.977	4.57301
192.049	4.56645
192.12	4.55978
192.191	4.55301
192.262	4.54613
192.333	4.53915
192.404	4.53204
192.475	4.52482
192.546	4.51747
192.617	4.51
192.689	4.50239
192.76	4.49465
192.831	4.48677
192.902	4.47874
192.973	4.47056
193.044	4.46222
193.115	4.45372
193.186	4.44505
193.257	4.4362
193.328	4.42716
193.328	4.42716
193.875	4.41753
194.616	4.40825
195.466	4.39902
196.344	4.38947
197.162	4.37921
197.162	4.37921
197.327	4.3688
197.499	4.35811
197.676	4.34713
197.858	4.33584
198.044	4.32422
198.233	4.31227
198.425	4.29996
198.62	4.28728
198.816	4.2742
199.012	4.2607
199.209	4.24676
199.406	4.23234
199.601	4.21743
199.794	4.20198
199.985	4.18596
200.173	4.16932
200.357	4.15203
200.537	4.13402
200.711	4.11525
200.88	4.09565
201.042	4.07513
201.042	4.07513
201.635	4.0568
201.815	4.03252
202.026	4.00625
202.712	3.98297
202.712	3.98297
202.943	3.96439
203.205	3.94331
203.505	3.91999
203.85	3.89473
204.247	3.86793
204.704	3.84012
205.228	3.81196
205.826	3.78434
206.505	3.75835
207.274	3.73533
208.138	3.71681
212.703	3.71772
212.703	3.71772
213.689	3.74974
214.641	3.78064
215.562	3.81041
216.452	3.83907
217.313	3.86665
218.148	3.89316
218.958	3.91864
219.745	3.94312
220.51	3.96662
221.256	3.9892
221.985	4.01086
222.698	4.03166
223.397	4.05161
224.084	4.07074
224.76	4.08909
225.428	4.10667
226.089	4.12351
226.745	4.13964
227.398	4.15508
228.05	4.16983
228.702	4.18393
228.702	4.18393
230.021	4.1915
231.052	4.1932
231.853	4.18998
232.486	4.18264
233.009	4.17189
233.482	4.1584
233.964	4.14291
234.515	4.12625
234.515	4.12625
235.158	4.11864
235.806	4.11078
236.464	4.1027
236.464	4.1027
238.179	4.09465
239.076	4.08891
239.925	4.08056
239.925	4.08056
240.443	4.05918
240.783	4.03529
240.995	4.00896
241.126	3.98031
241.224	3.94951
241.338	3.91679
241.338	3.91679
241.522	3.88557
241.698	3.85141
241.885	3.81404
242.102	3.77311
242.371	3.72819
242.711	3.67877
243.143	3.62417
243.686	3.56353
244.361	3.49574
