Uv/Vis Spectrum: Nicotinamide
Formula: C6H6N2O
CAS: 98-92-0
Melting point: 130
Boiling point: 157(0.0005)
Instrument: Beckman DU
Origin: INSTITUTE OF ENERGY PROBLEMS OF CHEMICAL PHYSICS, RAS
Wavelength (nm)	Logarithm epsilon
201.798	3.85035
202.1	3.85035
202.302	3.84728
202.604	3.84728
202.805	3.84318
203.309	3.84318
203.46	3.8401
205.627	3.84318
205.828	3.84318
205.98	3.84728
206.131	3.84728
206.332	3.85035
206.635	3.85035
206.836	3.85343
211.522	3.89135
211.673	3.89135
211.875	3.89442
212.026	3.89442
212.882	3.89852
213.033	3.9016
214.041	3.9016
214.192	3.90467
214.898	3.90467
215.049	3.9016
215.905	3.9016
216.056	3.89852
217.719	3.89135
217.921	3.89135
218.072	3.88828
218.223	3.88828
218.424	3.88417
218.576	3.88417
218.727	3.8811
218.928	3.8811
219.231	3.87392
219.432	3.87392
219.734	3.86778
219.936	3.86778
220.087	3.86368
220.238	3.8606
220.238	3.86368
220.44	3.85753
220.44	3.8606
223.614	3.7991
223.614	3.80218
223.967	3.78885
223.967	3.79193
224.118	3.78578
224.118	3.78885
224.269	3.78168
224.269	3.78578
224.622	3.77143
224.622	3.77553
224.773	3.76836
224.773	3.77143
231.676	3.53979
231.676	3.54287
231.827	3.53262
231.827	3.53569
232.028	3.52544
232.028	3.52954
232.179	3.52544
232.179	3.51929
232.331	3.51212
232.331	3.51929
232.532	3.50904
232.532	3.51212
232.683	3.50187
232.683	3.50494
234.85	3.43012
234.85	3.4332
235.202	3.41987
235.202	3.42295
235.354	3.4168
235.354	3.41987
235.555	3.40962
235.555	3.4127
235.706	3.40655
235.706	3.40962
235.857	3.39937
235.857	3.40245
236.059	3.3963
236.059	3.39937
236.361	3.38605
236.361	3.38912
236.563	3.38195
240.09	3.30405
240.241	3.29995
240.241	3.30405
240.392	3.29995
240.594	3.29688
240.745	3.2938
240.745	3.29688
240.896	3.2938
241.249	3.28663
241.4	3.28663
241.601	3.28355
241.752	3.28355
241.904	3.27945
243.415	3.2733
244.121	3.2733
244.272	3.2692
244.423	3.2692
245.431	3.2692
245.632	3.2733
246.64	3.2733
246.942	3.27945
247.295	3.27945
247.446	3.28355
247.799	3.28355
247.799	3.28663
248.151	3.28663
249.965	3.3102
250.318	3.31738
250.469	3.31738
250.671	3.32045
250.822	3.32045
250.822	3.32455
250.973	3.32455
251.174	3.32763
251.326	3.32763
253.845	3.36145
253.996	3.36145
255.86	3.38912
256.011	3.38912
256.213	3.3922
256.364	3.3922
256.364	3.3963
256.717	3.3963
256.868	3.39937
257.221	3.39937
257.221	3.40245
257.523	3.40245
263.267	3.42295
263.569	3.42295
263.569	3.41987
263.922	3.41987
263.922	3.4168
264.274	3.4168
265.433	3.39937
265.584	3.3963
265.786	3.3922
265.786	3.3963
265.937	3.3922
266.088	3.38605
266.088	3.38912
266.29	3.38195
266.29	3.38605
266.441	3.37887
266.441	3.38195
266.592	3.3758
266.592	3.37887
266.794	3.3717
266.794	3.3758
269.464	3.29995
269.464	3.30405
269.615	3.2938
269.615	3.29995
269.817	3.2897
269.817	3.28663
269.968	3.27945
269.968	3.28663
270.119	3.27638
270.119	3.27945
270.32	3.26613
270.32	3.2733
270.472	3.25895
270.472	3.26613
270.623	3.2528
270.623	3.25895
270.824	3.2528
270.824	3.24563
270.976	3.24255
270.976	3.24563
274.855	2.97607
275.006	2.97197
275.006	2.95864
275.157	2.95557
275.157	2.9484
278.382	2.61324
278.533	2.59274
278.533	2.61324
278.684	2.57634
278.684	2.59274
278.886	2.55174
278.886	2.57224
279.037	2.53534
279.037	2.54866
280.7	2.35392
280.7	2.36417
280.901	2.3365
280.901	2.35085
281.052	2.32317
281.052	2.3365
281.204	2.30575
281.204	2.32317
281.405	2.28935
281.405	2.30267
281.556	2.27193
281.556	2.28525
281.707	2.26168
281.707	2.26885
282.06	2.22068
282.211	2.20018
282.211	2.2176
282.413	2.18686
282.413	2.19711
282.564	2.18686
282.564	2.17251
285.94	1.8722
286.091	1.85477
286.091	1.86912
286.242	1.83837
286.242	1.8517
286.746	1.79737
286.746	1.80352
286.947	1.78303
286.947	1.79327
287.099	1.7697
287.099	1.77995
287.25	1.75638
287.25	1.76663
287.451	1.74203
287.451	1.75228
287.602	1.7287
287.602	1.73895
287.753	1.71845
287.753	1.72563
287.955	1.71538
287.955	1.69795
288.106	1.69488
288.257	1.66003
288.257	1.66721
288.459	1.64363
288.459	1.65696
288.61	1.63953
288.61	1.63338
288.761	1.61903
288.761	1.62928
288.963	1.60571
288.963	1.61596
289.114	1.58828
289.114	1.60263
289.265	1.57496
289.265	1.58521
289.467	1.56471
289.467	1.57189
289.618	1.56164
289.97	1.51654
289.97	1.52371
290.122	1.50321
290.122	1.51346
290.273	1.48989
290.273	1.50321
290.474	1.47246
290.474	1.48579
290.625	1.47246
290.625	1.46222
290.777	1.44479
290.777	1.45914
290.978	1.43147
290.978	1.44479
291.129	1.41814
291.129	1.42839
291.28	1.41097
291.28	1.41814
291.482	1.40789
291.784	1.35972
291.784	1.36997
291.986	1.35665
291.986	1.34947
292.137	1.33205
292.137	1.3464
292.288	1.31565
292.288	1.32897
292.49	1.3013
292.49	1.31565
292.641	1.2849
292.641	1.29822
292.792	1.27055
292.792	1.2808
292.993	1.2644
292.993	1.26747
293.497	1.2234
293.497	1.20905
293.649	1.20598
293.649	1.19573
293.8	1.17523
293.8	1.19265
294.001	1.17215
294.001	1.15473
294.152	1.14448
294.152	1.15473
294.303	1.12706
294.303	1.14141
294.505	1.11681
294.505	1.12398
294.656	1.11373
294.807	1.07581
295.009	1.06248
295.009	1.07273
295.16	1.04198
295.16	1.05941
295.311	1.03174
295.311	1.04198
295.513	1.01841
295.513	1.02866
295.664	1.00406
295.664	1.01431
295.815	1.00099
295.815	0.987662
296.017	0.97024
296.017	0.983563
296.168	0.95999
296.168	0.967164
296.671	0.905666
296.671	0.915917
296.823	0.89132
296.823	0.901567
297.024	0.874916
297.024	0.888241
297.175	0.857495
297.175	0.870819
297.327	0.844173
297.327	0.854421
297.528	0.826748
297.528	0.840068
297.679	0.813421
297.679	0.82367
297.83	0.806248
297.83	0.809324
298.687	0.751925
298.687	0.762176
298.838	0.737574
298.838	0.747823
299.04	0.731428
299.04	0.737574
299.191	0.721176
299.191	0.72733
299.342	0.721176
299.342	0.714003
299.543	0.703756
299.543	0.710929
299.695	0.693498
299.695	0.700678
299.846	0.686323
299.846	0.690426
300.047	0.680181
300.047	0.686323
300.198	0.66993
300.198	0.676081
300.35	0.662758
300.35	0.66993
