Uv/Vis Spectrum: Pyrazinamide
Formula: C5H5N3O
CAS: 98-96-4
Melting point: 189-191
Instrument: Hilger Uvispek
Origin: INSTITUTE OF ENERGY PROBLEMS OF CHEMICAL PHYSICS, RAS
Wavelength (nm)	Logarithm epsilon
212.34	3.936
213.35	3.916
214.36	3.895
215.21	3.872
216.05	3.848
216.9	3.825
217.57	3.798
218.25	3.771
218.76	3.744
219.43	3.717
220.11	3.69
220.28	3.659
220.95	3.632
221.46	3.606
222.14	3.579
222.64	3.552
223.15	3.525
224	3.498
224.84	3.471
225.68	3.447
226.7	3.423
227.88	3.403
229.06	3.386
230.42	3.369
231.94	3.359
233.46	3.353
234.98	3.353
236.5	3.356
238.02	3.363
239.37	3.376
240.72	3.393
242.08	3.41
243.26	3.427
244.44	3.447
245.46	3.467
246.47	3.487
247.65	3.508
248.67	3.531
249.68	3.552
250.69	3.575
251.71	3.595
252.55	3.619
253.57	3.643
254.58	3.663
255.43	3.686
256.44	3.71
257.28	3.734
258.3	3.757
259.14	3.781
260.16	3.804
261.17	3.828
262.18	3.848
263.37	3.869
264.55	3.885
265.73	3.902
267.08	3.912
268.44	3.922
269.96	3.926
271.31	3.916
272.66	3.899
273.68	3.879
274.35	3.852
275.2	3.825
275.7	3.798
276.21	3.771
276.72	3.744
277.22	3.717
277.73	3.69
278.07	3.659
278.58	3.629
278.91	3.599
279.25	3.568
279.59	3.538
279.93	3.508
280.43	3.477
280.77	3.447
281.11	3.417
281.45	3.386
281.79	3.356
281.96	3.326
282.29	3.295
282.63	3.265
282.8	3.235
283.14	3.204
283.48	3.174
283.64	3.144
283.98	3.113
284.32	3.083
284.66	3.053
285.17	3.026
285.5	2.995
285.84	2.965
286.01	2.935
286.52	2.908
286.86	2.877
287.36	2.847
287.53	2.817
288.21	2.79
288.71	2.763
289.22	2.732
289.73	2.702
290.24	2.675
290.74	2.648
291.25	2.621
291.92	2.594
292.6	2.567
293.28	2.54
294.12	2.516
294.97	2.493
296.15	2.473
297.67	2.469
299.19	2.473
300.54	2.489
301.89	2.506
303.08	2.527
304.26	2.547
305.44	2.567
306.63	2.584
307.81	2.601
308.99	2.618
310.17	2.634
311.36	2.651
312.71	2.668
314.06	2.682
315.24	2.699
316.6	2.712
317.95	2.725
319.47	2.732
320.99	2.742
322.51	2.742
324.03	2.742
325.55	2.736
326.9	2.722
328.26	2.705
329.27	2.685
330.28	2.665
331.3	2.645
332.14	2.621
333.16	2.597
334	2.574
334.85	2.55
335.69	2.527
336.54	2.5
337.38	2.476
338.23	2.449
338.9	2.422
339.58	2.395
340.42	2.371
340.93	2.344
341.6	2.318
342.11	2.291
342.62	2.264
343.29	2.237
343.97	2.21
344.48	2.183
344.98	2.156
345.66	2.129
346.17	2.098
346.67	2.071
347.18	2.044
347.69	2.017
348.2	1.99
348.7	1.96
349.21	1.933
349.72	1.903
350.05	1.872
350.56	1.845
351.07	1.819
351.41	1.788
351.74	1.758
352.25	1.731
352.59	1.7
352.93	1.67
353.26	1.64
353.6	1.609
353.94	1.579
354.28	1.549
354.79	1.518
355.12	1.488
355.46	1.458
355.8	1.427
356.31	1.397
356.48	1.367
356.98	1.34
357.32	1.309
357.66	1.279
358	1.249
358.5	1.218
358.84	1.188
359.18	1.158
359.52	1.127
359.85	1.097
360.19	1.067
360.7	1.036
361.04	1.006
361.38	0.976
361.54	0.945
361.88	0.915
362.22	0.885
362.56	0.854
363.07	0.824
363.4	0.794
363.74	0.763
364.08	0.733
364.42	0.702
364.92	0.675
365.26	0.645
365.6	0.615
366.11	0.584
366.44	0.554
366.78	0.524
367.29	0.493
367.63	0.463
368.13	0.436
368.47	0.406
