Uv/Vis Spectrum: Benzene, nitro-
Formula: C6H5NO2
CAS: 98-95-3
Melting point: 5.7
Boiling point: 210.8
Instrument: n.i.g.
Origin: INSTITUTE OF ENERGY PROBLEMS OF CHEMICAL PHYSICS, RAS
Wavelength (nm)	Logarithm epsilon
408.004	0.747738
407.779	0.759267
407.48	0.767341
406.855	0.778874
404.576	0.836121
404.155	0.858808
403.723	0.872349
402.911	0.888348
400.729	0.950613
400.224	0.965065
399.404	0.979517
398.518	0.997316
397.63	1.06247
397.63	1.0557
397.422	1.06511
397.422	1.039
396.902	1.0979
396.902	1.08068
396.902	1.08923
396.902	1.10679
393.403	1.18212
392.792	1.1967
392.182	1.21139
391.575	1.22631
388.965	1.28908
388.813	1.30266
388.651	1.31634
388.467	1.33026
386.882	1.3875
386.227	1.4101
385.552	1.4327
384.869	1.4553
383.604	1.48944
383.279	1.49817
382.944	1.51671
382.107	1.54117
382.107	1.54117
382.044	1.5472
381.961	1.55322
381.866	1.55925
378.39	1.63759
377.916	1.65315
377.434	1.66872
376.932	1.68429
374.744	1.74957
373.867	1.76765
372.993	1.78573
372.124	1.80381
370.217	1.85854
369.303	1.87664
368.373	1.89485
367.438	1.91328
363.563	1.97053
361.634	1.99283
360.875	2.00363
360.625	2.01221
356.012	2.0564
354.803	2.07098
353.593	2.08567
352.374	2.10375
352.374	2.10059
352.374	2.10059
352.374	2.10713
352.374	2.11063
349.411	2.1267
348.849	2.13174
348.288	2.13689
347.729	2.14227
342.431	2.19952
340.582	2.21272
339.663	2.22079
338.874	2.23065
334.798	2.2643
334.204	2.27181
333.661	2.2752
332.706	2.27735
326.934	2.34264
326.15	2.35182
325.355	2.36123
324.556	2.37076
321.87	2.41545
321.223	2.42652
320.578	2.43769
319.935	2.44909
317.491	2.49078
317.391	2.50097
317.282	2.51138
317.16	2.52191
316.135	2.5425
316.027	2.54601
315.904	2.54953
315.773	2.55305
313.263	2.6128
312.874	2.624
312.479	2.63542
312.071	2.64695
310.252	2.70169
309.873	2.7119
309.375	2.73014
308.768	2.74538
307.142	2.80011
306.681	2.81027
306.352	2.82042
305.873	2.83928
303.001	2.92013
302.319	2.9397
301.914	2.9548
301.436	2.96935
299.295	3.03714
298.882	3.05085
298.471	3.06478
298.06	3.07882
296.256	3.13556
296.211	3.14414
295.896	3.15494
295.046	3.17724
292.683	3.24002
292.486	3.24857
292.289	3.25724
292.092	3.26613
290.637	3.31534
290.267	3.3284
289.886	3.34145
289.5	3.35451
287.497	3.3987
287.034	3.41328
286.566	3.42798
286.088	3.44289
284.692	3.48457
284.578	3.4959
284.405	3.50254
284.025	3.51018
284.025	3.51018
283.786	3.51184
283.548	3.51372
283.309	3.51571
283.309	3.51571
283.229	3.52238
283.143	3.52928
283.045	3.5363
281	3.58601
280.428	3.60059
279.852	3.61529
279.267	3.6302
276.998	3.68494
276.386	3.69645
275.838	3.70875
275.314	3.71859
274.145	3.75223
273.387	3.76287
272.382	3.77407
271.471	3.78638
268.35	3.81751
267.663	3.82255
266.974	3.8277
266.277	3.83308
262.681	3.84865
261.904	3.84865
261.12	3.84865
260.337	3.84865
257.815	3.83308
257.595	3.82891
257.182	3.82553
256.226	3.82002
256.01	3.81751
255.858	3.81751
255.708	3.81751
255.557	3.81751
252.684	3.7914
252.284	3.7869
251.886	3.78251
251.49	3.77834
251.156	3.77583
250.948	3.77583
250.735	3.77583
250.514	3.77583
248.381	3.7447
246.815	3.7223
246.14	3.71085
245.765	3.70051
245.467	3.69749
245.328	3.69749
245.189	3.69749
245.051	3.69749
243.419	3.65632
243.282	3.65632
243.146	3.65632
243.01	3.65632
243.01	3.65632
242.331	3.64039
241.66	3.6247
241.002	3.60911
235.192	3.45294
234.961	3.44341
234.738	3.434
234.519	3.42482
233.114	3.3751
232.864	3.3637
232.619	3.35252
232.382	3.34145
