Uv/Vis Spectrum: Benzoic acid, 3-methyl-
Formula: C8H8O2
CAS: 99-04-7
Melting point: 110-111
Instrument: Unicam SP 700
Origin: INSTITUTE OF ENERGY PROBLEMS OF CHEMICAL PHYSICS, RAS
Wavelength (nm)	Logarithm epsilon
208.77	3.874
208.82	3.864
208.92	3.848
209.16	3.82
209.53	3.783
210.03	3.741
210.46	3.713
211.3	3.672
212.15	3.648
212.99	3.631
213.84	3.617
214.68	3.614
215.52	3.617
216.37	3.628
217.21	3.645
218.05	3.662
218.9	3.682
219.74	3.703
220.58	3.723
221.43	3.751
222.27	3.782
223.1	3.807
223.96	3.834
224.76	3.863
225.62	3.894
226.5	3.926
227.33	3.946
228.18	3.963
229.02	3.98
229.87	3.994
230.71	3.997
231.55	4.011
232.4	4.011
233.24	4.014
234.08	4.014
234.93	4.011
235.77	4.001
236.61	3.994
237.46	3.977
238.3	3.96
239.15	3.939
239.99	3.912
240.83	3.881
241.68	3.843
242.52	3.799
243.36	3.758
244.21	3.706
245.05	3.655
245.89	3.604
246.74	3.542
247.58	3.491
248.43	3.433
249.27	3.374
250.11	3.32
250.96	3.258
251.8	3.2
252.64	3.145
253.49	3.094
254.33	3.056
255.17	3.022
256.02	2.998
256.86	2.981
257.71	2.967
258.55	2.96
259.39	2.95
260.24	2.95
261.08	2.95
261.92	2.95
262.77	2.953
263.61	2.964
264.45	2.967
265.3	2.981
266.14	2.988
266.99	2.998
267.83	3.012
268.67	3.018
269.52	3.032
270.36	3.046
271.2	3.056
272.05	3.066
272.89	3.08
273.73	3.094
274.58	3.107
275.42	3.121
276.27	3.131
277.11	3.145
277.95	3.162
278.8	3.176
279.64	3.179
280.48	3.179
281.33	3.179
282.17	3.176
283.01	3.169
283.86	3.166
284.7	3.159
285.55	3.145
286.39	3.131
287.23	3.114
288.08	3.09
288.92	3.049
289.76	2.984
290.61	2.916
291.45	2.851
292.29	2.779
293.14	2.693
293.98	2.604
294.83	2.522
295.67	2.437
296.51	2.355
297.36	2.269
298.2	2.201
298.92	2.143
299.82	2.065
300.57	1.988
301.56	1.897
302.33	1.821
302.98	1.759
