Uv/Vis Spectrum: 3-Nitroaniline
Formula: C6H6N2O2
CAS: 99-09-2
Melting point: 114
Boiling point: 306 dec
Instrument: n.i.g.
Origin: INSTITUTE OF ENERGY PROBLEMS OF CHEMICAL PHYSICS, RAS
Wavelength (nm)	Logarithm epsilon
432.419	0.768216
432.119	0.814328
431.82	0.860446
431.521	0.906583
431.223	0.952749
430.925	0.998952
430.627	1.0452
430.33	1.09151
430.33	1.09151
429.94	1.13172
429.549	1.17194
429.157	1.2122
428.765	1.25246
428.372	1.29275
427.98	1.33305
427.587	1.37336
427.195	1.41368
426.802	1.45401
426.411	1.49434
426.019	1.53468
426.019	1.53468
424.943	1.62127
424.078	1.69321
423.398	1.75113
422.879	1.79564
422.495	1.82736
422.223	1.84692
422.039	1.85493
422.039	1.85493
421.43	1.91539
420.809	1.97608
420.183	2.03689
420.183	2.03689
418.89	2.12942
417.889	2.20008
417.131	2.25263
416.568	2.29085
416.155	2.31851
415.847	2.33939
415.599	2.35724
415.367	2.37585
415.367	2.37585
414.805	2.39957
413.932	2.44541
412.963	2.49251
412.963	2.49251
412.723	2.5098
412.235	2.53509
411.365	2.58517
411.365	2.58517
410.871	2.59945
410.338	2.62399
409.313	2.67983
409.014	2.69343
408.916	2.7067
408.812	2.7202
408.696	2.73382
408.696	2.73382
407.944	2.7555
406.734	2.79742
405.247	2.84942
403.659	2.90135
403.659	2.90135
402.427	2.92907
401.197	2.95703
399.962	2.98509
399.962	2.98509
399.873	2.99138
399.779	2.99766
399.672	3.00394
399.672	3.00394
398.675	3.01398
396.922	3.03505
394.519	3.06262
393.676	3.07345
391.272	3.07286
388.896	3.07226
386.549	3.07167
386.549	3.07167
385.024	3.05011
384.264	3.04147
383.611	3.03834
383.611	3.03834
383.166	3.02824
382.733	3.01814
382.307	3.00805
382.307	3.00805
381.954	3.00693
381.607	3.00592
381.272	3.00515
381.272	3.00515
381.183	2.99674
381.106	2.98845
381.034	2.98039
381.034	2.98039
380.76	2.97732
380.492	2.97449
380.235	2.97177
380.235	2.97177
379.974	2.96013
379.279	2.94019
377.566	2.89487
377.566	2.89487
377.352	2.88288
377.143	2.87113
376.945	2.85949
376.945	2.85949
376.269	2.83934
375.6	2.8192
374.945	2.79905
374.945	2.79905
374.531	2.79567
374.014	2.7849
372.955	2.75752
372.955	2.75752
372.787	2.75748
372.618	2.75743
372.45	2.75738
372.45	2.75738
372.405	2.7528
372.365	2.74845
372.337	2.74422
372.337	2.74422
371.635	2.72216
370.69	2.69643
368.701	2.64494
368.701	2.64494
367.41	2.60201
366.133	2.55909
364.875	2.51616
364.875	2.51616
364.194	2.4799
363.712	2.45783
363.015	2.43102
363.015	2.43102
362.869	2.41547
362.666	2.40282
362.445	2.38724
362.445	2.38724
362.061	2.37007
361.429	2.33597
360.624	2.29035
359.719	2.2386
358.786	2.18615
357.897	2.1384
357.897	2.1384
357.374	2.1209
356.852	2.1034
356.332	2.0859
356.332	2.0859
355.716	2.07171
355.159	2.06173
354.184	2.04742
353.838	2.04469
352.224	2.05802
351.468	2.06623
350.914	2.07638
350.914	2.07638
350.412	2.11457
350.037	2.14988
349.76	2.16852
349.76	2.16852
349.363	2.22881
349.068	2.26379
348.826	2.29855
348.826	2.29855
348.611	2.31602
348.214	2.35718
347.71	2.41257
347.171	2.4727
346.67	2.52809
346.278	2.56926
346.065	2.58672
346.065	2.58672
345.096	2.70127
344.684	2.74487
344.473	2.75491
344.473	2.75491
344.438	2.77016
344.395	2.78552
344.347	2.80111
344.347	2.80111
343.703	2.84968
343.271	2.88687
342.68	2.94457
342.68	2.94457
342.552	2.94558
342.414	2.94658
342.272	2.94759
342.272	2.94759
342.265	2.96088
342.259	2.97441
342.252	2.98805
342.252	2.98805
341.982	3.00386
341.784	3.01736
341.585	3.02619
341.585	3.02619
341.233	3.07711
340.906	3.11648
340.7	3.14573
340.165	3.17025
340.019	3.1934
339.827	3.2107
339.615	3.23208
339.615	3.23208
339.07	3.26686
338.155	3.33223
337.276	3.38686
337.276	3.38686
336.692	3.40323
336.121	3.41493
335.411	3.42985
335.411	3.42985
334.449	3.44062
333.407	3.45066
331.994	3.46653
331.994	3.46653
331.589	3.47507
330.925	3.48586
330.191	3.50164
330.191	3.50164
329.831	3.50414
329.471	3.50665
329.113	3.50915
329.113	3.50915
327.463	3.53715
326.266	3.5581
325.166	3.57839
323.817	3.60445
321.887	3.64267
321.887	3.64267
318.996	3.72052
316.717	3.78292
314.962	3.83166
313.652	3.86854
312.714	3.89535
312.08	3.91386
311.684	3.92588
311.463	3.93319
311.355	3.93758
311.299	3.94084
