Uv/Vis Spectrum: Benzene, 1-methyl-3-nitro-
Formula: C7H7NO2
CAS: 99-08-1
Melting point: oil
Instrument: Unicam SP 500
Origin: INSTITUTE OF ENERGY PROBLEMS OF CHEMICAL PHYSICS, RAS
Wavelength (nm)	Logarithm epsilon
212.23	3.962
213.25	3.939
214.26	3.915
215.45	3.894
216.64	3.874
217.49	3.85
218.34	3.826
219.02	3.799
219.7	3.771
220.21	3.744
220.72	3.717
221.23	3.686
221.57	3.655
221.91	3.625
222.25	3.594
222.42	3.563
222.58	3.532
222.75	3.502
222.92	3.471
223.26	3.44
223.6	3.41
223.94	3.379
224.45	3.352
224.96	3.324
225.47	3.297
226.15	3.27
227	3.246
228.02	3.225
229.55	3.225
230.57	3.249
231.42	3.276
232.26	3.3
232.94	3.328
233.79	3.352
234.47	3.379
235.32	3.403
236.17	3.43
237.19	3.454
238.04	3.481
238.55	3.512
239.57	3.532
240.42	3.56
241.26	3.587
242.28	3.611
243.3	3.635
244.15	3.662
245.17	3.686
246.02	3.71
247.04	3.734
248.06	3.754
249.25	3.775
250.43	3.795
251.62	3.812
252.98	3.826
254.34	3.84
255.87	3.85
257.4	3.853
258.92	3.853
260.28	3.84
261.81	3.829
263.17	3.819
264.36	3.802
265.38	3.782
266.4	3.761
267.42	3.737
268.43	3.717
269.28	3.693
270.13	3.666
271.15	3.642
272	3.614
272.85	3.59
273.7	3.563
274.55	3.539
275.23	3.512
276.08	3.488
276.58	3.461
277.43	3.437
278.11	3.41
278.79	3.382
279.47	3.355
280.32	3.328
281	3.3
281.85	3.276
282.7	3.249
283.72	3.225
284.74	3.205
285.75	3.184
286.94	3.167
288.3	3.154
289.66	3.143
291.02	3.126
292.38	3.113
293.74	3.096
295.09	3.082
296.28	3.065
297.47	3.044
298.66	3.024
299.85	3.007
300.87	2.986
302.06	2.966
302.91	2.942
303.92	2.918
304.94	2.894
305.79	2.867
306.64	2.843
307.49	2.816
308.34	2.788
309.19	2.764
309.87	2.737
310.72	2.71
311.4	2.683
311.91	2.655
312.75	2.631
313.43	2.604
314.11	2.577
314.79	2.549
315.3	2.522
315.98	2.495
316.49	2.464
317.17	2.437
317.85	2.41
318.53	2.382
319.04	2.355
319.72	2.328
320.4	2.3
321.08	2.273
322.09	2.249
322.94	2.225
323.96	2.201
325.15	2.184
326.51	2.171
328.04	2.164
329.57	2.154
331.09	2.15
332.62	2.143
334.15	2.133
335.68	2.13
337.21	2.119
338.74	2.116
340.09	2.106
341.62	2.099
343.15	2.089
344.68	2.082
346.21	2.075
347.74	2.065
349.09	2.051
350.62	2.044
351.98	2.031
353.34	2.017
354.7	2
356.06	1.986
357.42	1.969
358.77	1.952
360.13	1.935
361.49	1.918
362.85	1.901
364.04	1.881
365.4	1.863
366.42	1.843
367.6	1.826
368.62	1.805
369.81	1.785
371	1.768
372.19	1.747
373.04	1.724
374.23	1.703
375.25	1.683
376.26	1.662
377.28	1.638
378.47	1.618
379.49	1.594
380.51	1.57
381.53	1.549
382.38	1.526
383.4	1.505
384.42	1.485
385.26	1.461
386.28	1.437
387.3	1.416
388.15	1.389
389.17	1.369
390.02	1.341
391.04	1.321
391.89	1.293
392.91	1.27
393.75	1.242
394.77	1.222
395.45	1.194
396.47	1.174
397.32	1.15
398.34	1.126
399.02	1.099
