Uv/Vis Spectrum: 1,3,5-Trinitrobenzene
Formula: C6H3N3O6
CAS: 99-35-4
Melting point: 121.5
Boiling point: 315
Instrument: Beckman DU
Origin: INSTITUTE OF ENERGY PROBLEMS OF CHEMICAL PHYSICS, RAS
Wavelength (nm)	Logarithm epsilon
212.44	4.379
213.66	4.384
214.88	4.39
216.1	4.392
217.32	4.398
218.54	4.403
219.76	4.405
220.98	4.405
222.2	4.405
223.42	4.403
224.64	4.398
225.86	4.39
227.08	4.39
228.16	4.382
229.38	4.376
230.47	4.369
231.69	4.363
232.77	4.355
233.99	4.348
235.48	4.324
236.3	4.308
237.38	4.295
238.46	4.282
239.41	4.266
240.36	4.253
241.31	4.237
242.12	4.221
242.94	4.206
243.75	4.19
244.56	4.174
245.51	4.161
246.46	4.145
247.41	4.122
249.31	4.087
250.26	4.072
251.07	4.056
251.61	4.035
252.42	4.016
253.37	4.001
254.05	3.982
254.86	3.964
255.68	3.948
256.63	3.935
257.44	3.919
258.25	3.869
258.93	3.848
259.61	3.83
260.29	3.809
260.83	3.788
261.51	3.767
262.05	3.746
262.73	3.725
263.27	3.704
263.67	3.683
264.22	3.662
265.03	3.646
265.44	3.625
266.11	3.604
266.52	3.578
266.93	3.557
267.47	3.535
267.88	3.512
268.42	3.491
268.83	3.47
269.37	3.449
269.91	3.428
270.45	3.407
270.99	3.386
271.67	3.362
272.48	3.336
273.16	3.307
273.57	3.283
274.11	3.262
274.65	3.241
275.33	3.22
276.01	3.199
276.69	3.178
277.09	3.157
277.77	3.139
278.45	3.118
279.13	3.099
280.08	3.081
281.16	3.057
282.11	3.034
283.06	3.018
283.6	2.997
284.55	2.981
285.63	2.968
286.58	2.955
287.67	2.944
288.75	2.934
289.83	2.923
290.92	2.915
292.14	2.913
295.12	2.892
296.2	2.878
297.42	2.871
