Uv/Vis Spectrum: Benzenamine, 2-methoxy-5-nitro-
Formula: C7H8N2O3
CAS: 99-59-2
Melting point: 116-117
Instrument: Unicam SP 800
Origin: INSTITUTE OF ENERGY PROBLEMS OF CHEMICAL PHYSICS, RAS
Wavelength (nm)	Logarithm epsilon
202.54	4.242
203.73	4.221
204.57	4.194
205.25	4.166
205.93	4.139
206.44	4.112
207.12	4.084
207.62	4.054
208.3	4.026
208.81	3.999
209.32	3.972
210.33	3.948
211.69	3.931
213.21	3.924
214.74	3.927
216.26	3.934
217.45	3.951
218.64	3.972
219.82	3.992
221.18	4.006
222.53	4.023
224.06	4.033
225.41	4.043
226.94	4.047
228.46	4.043
229.82	4.026
231.17	4.009
232.36	3.992
233.71	3.975
235.07	3.958
236.42	3.944
237.95	3.934
239.47	3.934
241	3.941
242.35	3.958
243.54	3.979
244.72	3.996
245.91	4.013
247.1	4.033
248.11	4.054
249.3	4.071
250.65	4.088
252.01	4.105
253.53	4.112
254.89	4.122
256.24	4.132
257.77	4.136
259.29	4.129
260.82	4.119
262.17	4.102
263.19	4.081
264.21	4.061
265.22	4.04
266.24	4.02
267.09	3.996
267.93	3.972
268.61	3.944
269.63	3.92
270.47	3.897
271.15	3.869
271.83	3.842
272.68	3.815
273.52	3.791
274.03	3.763
274.54	3.736
275.39	3.709
276.07	3.681
276.91	3.657
277.76	3.633
278.78	3.61
279.62	3.582
280.81	3.562
281.92	3.552
283.86	3.545
285.49	3.553
286.74	3.565
288.22	3.58
289.53	3.594
290.63	3.606
291.82	3.623
293.18	3.637
294.53	3.651
295.89	3.661
297.24	3.671
298.67	3.684
299.8	3.692
301.65	3.702
303.13	3.704
304.75	3.704
306.22	3.702
307.8	3.696
309.27	3.688
310.83	3.677
312.15	3.664
313.51	3.651
314.86	3.633
316.22	3.62
317.57	3.603
318.93	3.586
320.28	3.569
321.64	3.551
322.99	3.534
324.35	3.517
325.7	3.5
327.06	3.487
328.41	3.469
329.94	3.463
331.46	3.452
332.99	3.449
334.51	3.449
336.04	3.449
337.53	3.451
339	3.453
340.56	3.458
342.04	3.464
343.49	3.469
345.17	3.478
346.27	3.484
347.83	3.492
349.25	3.5
350.5	3.509
351.97	3.519
353.45	3.527
355.01	3.534
356.54	3.541
358.06	3.548
359.61	3.553
361.08	3.558
362.63	3.562
364.16	3.565
365.68	3.569
367.25	3.572
369	3.575
370.19	3.577
371.78	3.579
373.31	3.579
374.83	3.579
376.36	3.579
377.88	3.579
379.49	3.578
380.96	3.577
382.46	3.575
383.98	3.572
385.5	3.565
387.03	3.558
388.41	3.552
389.91	3.541
391.17	3.534
392.79	3.524
394.31	3.517
395.84	3.507
397.19	3.493
398.55	3.483
400.07	3.473
401.43	3.456
402.78	3.442
404.14	3.425
405.5	3.411
406.85	3.398
408.21	3.384
409.56	3.367
410.92	3.35
412.27	3.333
413.63	3.319
414.98	3.302
416.05	3.289
417.38	3.268
418.71	3.251
420.06	3.234
421.27	3.217
422.44	3.2
423.62	3.183
424.69	3.168
425.99	3.148
427.01	3.128
428.03	3.107
429.04	3.087
430.23	3.07
431.42	3.049
432.77	3.032
433.96	3.015
435.14	2.998
436.33	2.981
437.51	2.964
438.7	2.943
439.89	2.923
441.07	2.902
442.26	2.885
443.44	2.865
444.63	2.848
445.82	2.827
446.83	2.807
448.02	2.786
449.03	2.762
450.22	2.742
451.24	2.721
452.25	2.701
453.44	2.68
454.62	2.66
455.64	2.639
456.66	2.615
457.84	2.595
459.03	2.574
459.88	2.55
460.89	2.53
462.08	2.51
463.1	2.489
463.94	2.465
464.96	2.445
466.14	2.424
467.16	2.404
468.01	2.38
469.02	2.356
470.04	2.335
471.06	2.315
471.9	2.291
473.09	2.27
474.11	2.25
475.12	2.229
475.97	2.205
476.99	2.185
478.17	2.164
479.19	2.144
480.21	2.123
481.22	2.1
482.24	2.079
483.26	2.059
484.27	2.038
485.29	2.018
486.3	1.994
487.49	1.973
488.51	1.949
489.52	1.925
490.54	1.901
491.73	1.881
492.74	1.86
493.76	1.84
494.77	1.816
495.96	1.795
496.98	1.775
497.99	1.754
499.01	1.734
500.03	1.713
501.04	1.69
502.23	1.669
503.25	1.649
504.26	1.625
505.15	1.607
506.46	1.584
507.24	1.567
508.5	1.539
509.33	1.522
510.53	1.495
511.72	1.474
512.73	1.454
513.75	1.433
514.77	1.409
515.95	1.389
517.14	1.368
518.15	1.348
519.11	1.329
520.36	1.304
521.54	1.283
522.73	1.263
523.74	1.242
524.76	1.218
525.95	1.198
527.13	1.177
