Uv/Vis Spectrum: Benzaldehyde, 3-nitro-
Formula: C7H5NO3
CAS: 99-61-6
Melting point: 58
Instrument: Unicam SP 500
Origin: INSTITUTE OF ENERGY PROBLEMS OF CHEMICAL PHYSICS, RAS
Wavelength (nm)	Logarithm epsilon
211.8	3.934
212.14	3.965
212.65	3.996
213.15	4.027
213.66	4.057
214.5	4.085
215.01	4.115
215.68	4.143
216.19	4.173
217.03	4.201
217.71	4.228
218.38	4.255
219.22	4.283
220.07	4.307
221.08	4.327
222.09	4.351
223.1	4.372
224.45	4.389
225.8	4.402
227.32	4.406
228.84	4.395
230.19	4.378
231.37	4.358
232.38	4.334
233.22	4.307
233.9	4.279
234.91	4.255
235.75	4.231
236.76	4.208
237.61	4.184
238.62	4.16
239.46	4.136
240.47	4.112
241.48	4.091
242.33	4.068
243.34	4.044
244.35	4.023
245.36	4.003
246.21	3.979
247.22	3.958
248.4	3.938
249.41	3.917
250.26	3.898
251.43	3.873
252.61	3.852
253.79	3.835
254.81	3.815
255.82	3.791
257	3.77
258.18	3.753
259.36	3.736
260.37	3.716
261.38	3.695
262.39	3.671
263.27	3.654
264.42	3.627
265.43	3.603
266.27	3.579
267.12	3.555
267.96	3.531
268.8	3.504
269.65	3.48
270.32	3.453
270.94	3.428
271.52	3.398
272.18	3.367
272.68	3.34
273.28	3.313
273.69	3.282
274.2	3.255
274.54	3.224
275.04	3.197
275.55	3.169
276.22	3.142
276.9	3.115
277.74	3.091
278.75	3.07
279.93	3.05
281.28	3.033
282.63	3.019
283.81	3.002
285.2	2.989
286.68	2.985
288.2	2.995
289.71	2.998
291.23	2.998
292.58	2.985
293.59	2.964
294.37	2.945
295.28	2.913
295.87	2.896
296.45	2.881
297.12	2.864
297.54	2.853
298.21	2.844
298.82	2.841
299.16	2.841
299.49	2.841
299.83	2.845
300.17	2.848
300.51	2.862
300.84	2.865
301.18	2.865
301.52	2.869
301.85	2.869
302.19	2.865
302.53	2.862
302.87	2.848
303.2	2.787
303.37	2.756
303.54	2.725
303.88	2.694
304.22	2.664
304.72	2.633
305.06	2.602
305.56	2.575
306.07	2.544
306.58	2.517
307.08	2.49
307.59	2.462
308.43	2.435
309.11	2.408
309.95	2.384
310.96	2.36
311.8	2.336
312.82	2.315
314	2.295
315.35	2.278
316.69	2.261
318.04	2.247
319.56	2.237
321.08	2.227
322.43	2.213
323.95	2.209
325.46	2.206
326.98	2.196
328.5	2.192
330.02	2.192
331.53	2.189
333.05	2.186
334.57	2.175
336.09	2.172
337.44	2.162
338.95	2.155
340.47	2.148
341.99	2.138
343.51	2.134
344.86	2.121
346.37	2.117
347.72	2.104
349.24	2.097
350.59	2.086
351.94	2.073
353.46	2.063
354.81	2.049
356.16	2.035
357.5	2.022
358.85	2.011
360.2	1.994
361.38	1.974
362.56	1.953
363.74	1.933
364.92	1.912
366.1	1.895
367.28	1.875
368.3	1.851
369.31	1.83
370.49	1.81
371.67	1.793
372.85	1.772
373.86	1.752
374.87	1.728
376.05	1.711
377.23	1.69
378.25	1.67
379.43	1.649
380.61	1.632
381.45	1.608
382.63	1.591
383.64	1.567
384.82	1.547
386	1.526
387.18	1.506
388.2	1.485
