Uv/Vis Spectrum: Methyl 4-hydroxybenzoate
Formula: C8H8O3
CAS: 99-76-3
Melting point: 126-129
Instrument: Zeiss VSU-1
Origin: INSTITUTE OF ENERGY PROBLEMS OF CHEMICAL PHYSICS, RAS
Wavelength (nm)	Logarithm epsilon
211.22	4.059
211.38	4.055
211.55	4.055
212.21	4.011
213.2	3.978
214.19	3.927
215.18	3.876
216.17	3.825
217.16	3.774
218.15	3.73
219.14	3.67
220.13	3.588
221.12	3.477
222.11	3.405
223.1	3.361
224.08	3.351
225.08	3.348
226.33	3.357
227.21	3.371
228.05	3.392
229.04	3.422
230.03	3.46
231.02	3.497
232.01	3.534
233	3.575
233.99	3.609
234.98	3.646
235.97	3.683
236.96	3.727
237.95	3.764
238.94	3.808
239.93	3.856
240.92	3.896
241.91	3.94
242.9	3.974
243.89	4.015
244.88	4.042
245.87	4.072
246.86	4.096
247.85	4.116
248.84	4.137
249.83	4.15
250.82	4.157
251.81	4.171
252.8	4.184
253.79	4.191
254.78	4.201
255.77	4.204
256.76	4.204
257.75	4.201
258.74	4.201
259.73	4.187
260.72	4.184
261.71	4.171
262.7	4.154
263.69	4.137
264.68	4.12
265.67	4.099
266.66	4.072
267.65	4.052
268.64	4.018
269.63	3.995
270.62	3.967
271.61	3.934
272.6	3.903
273.59	3.866
274.58	3.832
275.57	3.791
276.56	3.754
277.55	3.717
278.54	3.666
279.53	3.609
280.52	3.544
281.51	3.483
282.5	3.409
283.49	3.338
284.48	3.256
285.38	3.189
286.26	3.12
287.26	3.032
288.44	2.874
289.43	2.725
290.42	2.579
291.41	2.407
292.4	2.251
293.39	2.102
294.38	1.96
295.37	1.787
296.36	1.635
297.35	1.496
