Uv/Vis Spectrum: Benzene, 1-methyl-4-(1-methylethyl)-
Formula: C10H14
CAS: 99-87-6
Boiling point: 177.1
Instrument: unknown
Origin: INSTITUTE OF ENERGY PROBLEMS OF CHEMICAL PHYSICS, RAS
Wavelength (nm)	Logarithm epsilon
228.12	2.156
228.2	2.144
228.25	2.132
228.29	2.12
228.33	2.107
228.38	2.094
228.42	2.08
228.47	2.07
228.55	2.051
228.61	2.038
228.67	2.022
228.76	2.006
228.85	1.99
228.93	1.972
229.02	1.954
229.08	1.939
229.15	1.917
229.23	1.895
229.32	1.873
229.39	1.852
229.5	1.831
229.61	1.806
229.74	1.779
229.87	1.754
230	1.727
230.13	1.698
230.3	1.668
230.47	1.635
230.64	1.599
230.83	1.563
231.03	1.523
231.23	1.49
231.49	1.451
231.84	1.416
232.18	1.387
232.56	1.363
232.95	1.355
233.33	1.355
233.73	1.358
234.1	1.363
234.49	1.379
234.83	1.402
235.12	1.419
235.42	1.439
235.9	1.469
236.15	1.486
236.52	1.509
236.89	1.531
237.31	1.555
237.6	1.573
237.99	1.594
238.27	1.61
238.58	1.627
238.92	1.644
239.32	1.664
239.7	1.676
240.04	1.687
240.38	1.702
240.73	1.716
241.07	1.734
241.41	1.747
241.71	1.764
242.01	1.782
242.31	1.797
242.61	1.815
242.86	1.834
243.12	1.853
243.37	1.868
243.63	1.885
243.93	1.899
244.23	1.913
244.53	1.927
244.78	1.94
245.08	1.952
245.38	1.962
245.68	1.972
245.98	1.984
246.24	1.995
246.58	2.005
246.88	2.015
247.18	2.024
247.48	2.033
247.78	2.041
248.08	2.05
248.37	2.058
248.67	2.068
248.97	2.077
249.23	2.086
249.44	2.097
249.7	2.105
249.91	2.117
250.13	2.128
250.3	2.139
250.43	2.151
250.51	2.162
250.64	2.174
250.77	2.185
250.9	2.194
251.02	2.204
251.19	2.213
251.32	2.222
251.49	2.231
251.75	2.238
251.96	2.246
252.31	2.251
252.65	2.255
252.99	2.26
253.33	2.263
253.67	2.267
254.01	2.27
254.36	2.275
254.74	2.278
255.04	2.283
255.25	2.291
255.38	2.299
255.51	2.307
255.6	2.315
255.6	2.323
255.68	2.331
255.77	2.339
255.9	2.346
256.02	2.354
256.15	2.361
256.28	2.368
256.41	2.375
256.54	2.382
256.66	2.389
256.84	2.395
256.96	2.4
257.13	2.406
257.31	2.412
257.43	2.418
257.56	2.425
257.73	2.43
257.86	2.436
257.99	2.442
258.07	2.448
258.2	2.454
258.33	2.46
258.42	2.465
258.5	2.471
258.54	2.477
258.63	2.482
258.76	2.488
259.01	2.498
259.06	2.498
259.1	2.499
259.14	2.5
259.19	2.501
259.23	2.502
259.27	2.502
259.31	2.503
259.36	2.504
259.44	2.503
259.53	2.503
259.61	2.502
259.7	2.501
259.78	2.5
259.87	2.498
259.95	2.495
260.04	2.494
260.13	2.49
260.21	2.485
260.3	2.479
260.38	2.474
260.47	2.468
260.55	2.465
260.64	2.46
260.72	2.455
260.81	2.452
260.89	2.448
260.98	2.445
261.07	2.443
261.15	2.442
261.24	2.439
261.32	2.438
261.41	2.436
261.49	2.435
261.58	2.434
261.66	2.434
261.75	2.434
261.84	2.434
261.92	2.434
262.01	2.434
262.09	2.436
262.18	2.436
262.26	2.437
262.35	2.439
262.43	2.439
262.52	2.441
262.6	2.442
262.69	2.445
262.78	2.447
262.86	2.449
262.95	2.454
263.03	2.458
263.12	2.462
263.2	2.465
263.29	2.464
263.37	2.465
263.46	2.472
263.54	2.479
263.63	2.486
263.72	2.494
263.8	2.505
263.89	2.514
263.97	2.526
264.06	2.535
264.14	2.551
264.23	2.563
264.31	2.576
264.4	2.596
264.48	2.608
264.57	2.619
264.66	2.63
264.74	2.639
264.83	2.645
264.91	2.648
265	2.648
265.08	2.648
265.17	2.645
265.24	2.64
265.3	2.635
265.34	2.629
265.4	2.622
265.48	2.615
265.55	2.609
265.63	2.603
265.74	2.598
265.88	2.591
266.01	2.586
266.12	2.582
266.24	2.578
266.32	2.578
266.41	2.578
266.49	2.578
266.59	2.58
266.69	2.583
266.75	2.587
266.83	2.594
266.92	2.601
267.01	2.607
267.09	2.613
267.18	2.622
267.26	2.629
267.35	2.635
267.43	2.639
267.52	2.64
267.6	2.64
267.69	2.64
267.77	2.638
267.86	2.634
267.93	2.629
268.03	2.622
268.12	2.614
268.2	2.606
268.28	2.595
268.37	2.582
268.46	2.564
268.58	2.544
268.69	2.523
268.78	2.504
268.89	2.485
268.98	2.471
269.1	2.455
269.2	2.441
269.29	2.428
269.4	2.412
269.52	2.395
269.67	2.376
269.79	2.36
269.91	2.344
270.03	2.329
270.15	2.315
270.25	2.306
270.38	2.292
270.47	2.287
270.55	2.281
270.64	2.277
270.72	2.273
270.81	2.27
270.89	2.267
270.98	2.264
271.07	2.262
271.15	2.261
271.24	2.26
271.32	2.26
271.41	2.262
271.49	2.264
271.58	2.269
271.66	2.273
271.75	2.279
271.83	2.29
271.92	2.305
272.01	2.328
272.09	2.346
272.21	2.374
272.31	2.401
272.44	2.43
272.52	2.451
272.65	2.48
272.76	2.507
272.91	2.542
273	2.565
273.1	2.589
273.18	2.609
273.27	2.631
273.34	2.649
273.42	2.668
273.49	2.684
273.57	2.703
273.63	2.719
273.67	2.722
273.71	2.725
273.75	2.727
273.8	2.728
273.89	2.729
273.98	2.728
274.06	2.727
274.15	2.724
274.21	2.72
274.29	2.707
274.38	2.68
274.5	2.64
274.6	2.609
274.71	2.57
274.85	2.524
274.98	2.479
275.06	2.451
275.15	2.417
275.26	2.381
275.35	2.347
275.43	2.317
275.51	2.288
275.59	2.26
275.68	2.226
275.77	2.187
275.85	2.155
275.94	2.121
276.02	2.078
276.11	2.036
276.19	1.978
276.28	1.96
276.36	1.922
276.45	1.888
276.53	1.873
276.62	1.839
276.71	1.809
276.79	1.776
276.88	1.757
276.96	1.727
277.05	1.695
277.13	1.668
277.22	1.639
277.3	1.613
277.36	1.6
277.44	1.581
277.56	1.555
277.65	1.534
277.73	1.511
277.82	1.488
277.91	1.468
277.99	1.45
278.07	1.43
278.16	1.416
278.24	1.394
278.33	1.379
278.42	1.363
278.5	1.347
278.58	1.33
278.67	1.312
278.76	1.303
278.85	1.284
278.93	1.265
279.01	1.255
279.09	1.23
279.18	1.211
279.27	1.188
