Uv/Vis Spectrum: Acetophenone, 4'-hydroxy-
Formula: C8H8O2
CAS: 99-93-4
Melting point: 109.5
Boiling point: 147-8(3)
Instrument: Hitachi MPF-2
Origin: INSTITUTE OF ENERGY PROBLEMS OF CHEMICAL PHYSICS, RAS
Wavelength (nm)	Logarithm epsilon
225.07	3.59682
225.3	3.58272
225.537	3.56629
225.8	3.54791
226.104	3.52801
226.466	3.50711
226.904	3.48583
227.434	3.46492
228.074	3.4453
228.839	3.42802
228.839	3.42802
229.469	3.42807
230.111	3.42812
230.759	3.42817
230.759	3.42817
231.779	3.44142
232.736	3.45758
233.632	3.47567
234.467	3.49481
235.242	3.51423
235.957	3.5333
236.614	3.55147
237.212	3.56828
237.754	3.58336
238.239	3.59637
238.239	3.59637
238.636	3.61071
239.022	3.62462
239.398	3.63811
239.763	3.65122
240.119	3.66395
240.464	3.67634
240.801	3.6884
241.129	3.70015
241.448	3.7116
241.759	3.72276
242.062	3.73366
242.358	3.74431
242.646	3.75471
242.928	3.76487
243.203	3.77481
243.472	3.78454
243.735	3.79407
243.993	3.8034
244.245	3.81253
244.493	3.82149
244.736	3.83027
244.976	3.83889
245.211	3.84734
245.444	3.85564
245.673	3.86379
245.899	3.87179
246.123	3.87966
246.345	3.88738
246.566	3.89498
246.785	3.90245
247.003	3.90979
247.22	3.91702
247.437	3.92413
247.655	3.93113
247.872	3.93802
248.09	3.94481
248.31	3.95149
248.531	3.95808
248.753	3.96456
248.978	3.97096
249.205	3.97726
249.205	3.97726
249.314	3.97855
249.419	3.97992
249.54	3.98169
249.693	3.98418
249.896	3.9877
250.168	3.99254
250.526	3.99898
250.988	4.00725
251.573	4.01754
252.297	4.03001
253.18	4.04474
253.18	4.04474
253.776	4.05134
254.349	4.05734
254.932	4.06284
255.559	4.06799
256.263	4.07287
257.079	4.07761
258.039	4.0823
259.179	4.08704
259.179	4.08704
259.557	4.08705
259.936	4.08705
260.315	4.08706
260.315	4.08706
260.674	4.08509
261.028	4.08232
261.682	4.07629
261.682	4.07629
261.968	4.07105
262.246	4.06574
262.516	4.06036
262.779	4.0549
263.038	4.04938
263.294	4.04377
263.547	4.03808
263.8	4.03232
264.052	4.02646
264.307	4.02053
264.564	4.0145
264.826	4.00839
265.094	4.00218
265.368	3.99588
265.651	3.98948
265.944	3.98297
266.247	3.97636
266.563	3.96965
266.892	3.96282
267.237	3.95588
267.237	3.95588
268.2	3.94876
269.216	3.94206
270.178	3.93516
270.178	3.93516
270.481	3.92961
270.784	3.92392
270.967	3.91052
270.985	3.91435
271.087	3.91812
271.087	3.91812
271.315	3.90698
271.315	3.90698
271.447	3.89905
271.58	3.89097
271.711	3.88274
271.841	3.87435
271.969	3.86579
272.095	3.85706
272.219	3.84815
272.341	3.83905
272.46	3.82975
272.575	3.82024
272.688	3.81051
272.796	3.80054
272.9	3.79034
273	3.77988
273.096	3.76914
273.186	3.75813
273.271	3.74681
273.351	3.73518
273.424	3.7232
273.492	3.71087
273.492	3.71087
273.816	3.69797
274.14	3.68467
274.464	3.67095
274.788	3.65678
275.112	3.64212
275.436	3.62695
275.76	3.61121
276.084	3.59487
276.408	3.57788
276.732	3.56017
276.732	3.56017
276.853	3.55053
277.003	3.53721
277.186	3.52049
277.405	3.50068
277.663	3.47807
277.965	3.45301
278.312	3.42593
278.71	3.39739
279.162	3.36814
279.67	3.33913
280.239	3.31162
280.871	3.28715
281.571	3.26751
281.878	3.27282
282.021	3.27283
282.176	3.27285
282.338	3.27287
282.338	3.27287
282.339	3.2696
282.339	3.26602
282.34	3.26228
282.342	3.25465
282.342	3.25465
283.18	3.22179
283.969	3.18742
284.736	3.15122
285.507	3.11278
286.309	3.07158
287.17	3.02692
288.116	2.97788
289.175	2.92316
290.373	2.86089
290.373	2.86089
291.214	2.84294
292.296	2.80426
294.549	2.69632
294.549	2.69632
296.416	2.61924
