Uv/Vis Spectrum: Benzene, 1-methyl-4-nitro-
Formula: C7H7NO2
CAS: 99-99-0
Melting point: 54
Instrument: Unicam SP 500
Origin: INSTITUTE OF ENERGY PROBLEMS OF CHEMICAL PHYSICS, RAS
Wavelength (nm)	Logarithm epsilon
210.65	3.996
212	3.982
213.35	3.965
214.53	3.948
215.72	3.931
217.07	3.918
218.08	3.894
219.26	3.877
220.28	3.853
221.12	3.829
221.97	3.802
222.64	3.775
223.15	3.748
223.66	3.721
224	3.69
224.5	3.66
224.67	3.629
225.01	3.599
225.35	3.568
225.68	3.538
226.02	3.507
226.36	3.477
226.53	3.446
227.04	3.415
227.54	3.385
228.22	3.358
229.23	3.334
230.59	3.344
231.94	3.361
232.95	3.382
233.96	3.402
234.98	3.422
235.82	3.446
236.84	3.47
237.85	3.49
238.7	3.517
239.54	3.541
240.56	3.565
241.23	3.592
242.24	3.616
243.09	3.643
244.1	3.667
244.95	3.694
245.96	3.717
246.81	3.745
247.82	3.768
248.67	3.792
249.68	3.816
250.69	3.836
251.71	3.857
252.72	3.88
253.74	3.901
254.92	3.921
256.1	3.938
257.28	3.955
258.47	3.972
259.82	3.989
261.17	4.002
262.69	4.006
264.21	4.009
265.73	4.002
267.25	4.006
268.77	4.002
270.13	3.989
271.48	3.972
272.83	3.955
274.18	3.938
275.36	3.921
276.55	3.901
277.73	3.884
278.91	3.863
280.1	3.846
281.28	3.826
282.46	3.806
283.31	3.779
284.32	3.755
285.17	3.731
286.18	3.707
286.86	3.68
287.7	3.656
288.55	3.633
289.22	3.605
290.07	3.578
290.74	3.551
291.42	3.524
292.09	3.497
292.6	3.47
293.11	3.439
293.61	3.412
294.12	3.385
294.63	3.358
295.14	3.331
295.64	3.304
296.15	3.276
296.66	3.249
296.99	3.219
297.5	3.192
297.84	3.161
298.35	3.13
298.52	3.1
299.02	3.073
299.36	3.042
299.7	3.012
300.04	2.981
300.54	2.954
300.88	2.923
301.39	2.893
301.73	2.862
302.4	2.835
302.91	2.805
303.25	2.774
303.75	2.747
304.43	2.72
304.94	2.693
305.78	2.666
306.46	2.638
307.13	2.611
307.98	2.584
308.82	2.56
309.67	2.537
310.85	2.516
312.03	2.496
313.39	2.479
314.74	2.462
316.09	2.448
317.44	2.435
318.79	2.421
320.31	2.411
321.83	2.401
323.36	2.394
324.88	2.387
326.4	2.381
327.92	2.37
329.44	2.367
330.96	2.36
332.48	2.35
334	2.343
335.52	2.333
337.04	2.323
338.56	2.313
339.92	2.303
341.44	2.296
342.79	2.282
344.14	2.269
345.66	2.258
347.01	2.245
348.36	2.231
349.72	2.214
351.07	2.201
352.42	2.184
353.77	2.167
355.12	2.15
356.48	2.133
357.83	2.116
359.01	2.096
360.19	2.075
361.38	2.055
362.39	2.035
363.57	2.014
364.76	1.997
365.94	1.977
367.12	1.957
368.13	1.933
369.32	1.912
370.5	1.892
371.51	1.868
372.7	1.848
373.71	1.828
374.56	1.804
375.57	1.783
376.58	1.763
377.26	1.736
378.27	1.712
379.29	1.688
380.13	1.665
381.15	1.641
381.99	1.614
382.84	1.59
383.68	1.563
384.36	1.536
385.37	1.512
386.05	1.485
387.06	1.461
387.74	1.434
388.41	1.407
389.26	1.383
389.93	1.356
390.78	1.332
391.45	1.305
392.3	1.281
392.97	1.254
393.65	1.227
394.33	1.2
395.17	1.176
395.85	1.149
396.52	1.122
397.37	1.098
