Uv/Vis Spectrum: Acetophenone, 4'-amino-
Formula: C8H9NO
CAS: 99-92-3
Melting point: 106
Boiling point: 294; 195(15)
Instrument: n.i.g.
Origin: INSTITUTE OF ENERGY PROBLEMS OF CHEMICAL PHYSICS, RAS
Wavelength (nm)	Logarithm epsilon
371.672	1.05162
371.447	1.10098
371.236	1.14446
371.034	1.18303
370.84	1.21767
370.648	1.24937
370.455	1.27912
370.258	1.30788
370.052	1.33664
369.835	1.36639
369.602	1.3981
369.35	1.43277
369.075	1.47136
368.775	1.51487
368.444	1.56427
368.081	1.62055
368.081	1.62055
367.123	1.72516
366.26	1.81983
365.486	1.90504
364.795	1.98131
364.181	2.04912
363.639	2.10899
363.164	2.16142
362.75	2.2069
362.392	2.24594
362.084	2.27904
361.823	2.3067
361.603	2.32942
361.418	2.3477
361.266	2.36205
361.139	2.37296
361.035	2.38094
360.947	2.38649
360.872	2.39011
360.804	2.3923
360.739	2.39356
360.672	2.3944
360.672	2.3944
360.279	2.43196
359.862	2.46955
359.424	2.50716
358.969	2.54478
358.504	2.58241
358.03	2.62003
357.553	2.65764
357.078	2.69522
356.607	2.73278
356.145	2.77029
355.696	2.80775
355.265	2.84516
354.854	2.88249
354.469	2.91975
354.112	2.95693
353.789	2.99401
353.502	3.03099
353.502	3.03099
352.753	3.06291
351.808	3.12383
351.214	3.17813
351.214	3.17813
350.936	3.19068
350.42	3.22188
349.727	3.26708
348.918	3.32162
348.054	3.38082
347.194	3.44001
346.397	3.49455
345.72	3.53975
345.219	3.57096
344.951	3.5835
344.951	3.5835
344.376	3.6282
343.308	3.68833
342.208	3.74206
341.525	3.76759
341.525	3.76759
340.692	3.80887
339.862	3.85008
339.035	3.89123
338.208	3.93234
337.381	3.97342
336.552	4.01449
336.552	4.01449
334.424	4.06225
332.832	4.10021
331.325	4.13523
329.474	4.17415
329.474	4.17415
326.987	4.20965
324.598	4.23994
322.184	4.26557
319.632	4.28706
316.834	4.30495
313.691	4.31977
313.691	4.31977
312.398	4.32056
311.101	4.32125
309.807	4.3217
309.807	4.3217
307.279	4.29925
304.598	4.27296
302.111	4.24154
300.14	4.20372
300.14	4.20372
298.3	4.19761
296.757	4.18156
295.43	4.15803
294.243	4.12945
293.121	4.09827
291.994	4.06691
290.792	4.03782
289.449	4.01344
287.9	3.99621
287.9	3.99621
287.868	3.98945
287.823	3.98245
287.772	3.97535
287.772	3.97535
286.471	3.94587
285.214	3.91569
283.998	3.88488
282.821	3.8535
281.679	3.82161
280.568	3.78928
279.487	3.75658
278.432	3.72357
277.401	3.69033
276.39	3.65691
275.398	3.62338
274.422	3.58981
273.459	3.55627
273.459	3.55627
273.073	3.54563
272.385	3.51866
270.917	3.46577
270.917	3.46577
270.118	3.43191
269.318	3.39797
268.519	3.36393
267.723	3.32977
266.932	3.29547
266.148	3.261
265.373	3.22634
264.61	3.19148
263.861	3.15638
263.127	3.12104
262.411	3.08542
261.714	3.04951
261.038	3.01328
261.038	3.01328
259.983	2.97695
258.937	2.94062
257.899	2.9043
257.899	2.9043
256.428	2.88812
255.094	2.88171
253.887	2.88386
252.799	2.89342
251.821	2.90919
250.946	2.92999
250.167	2.95465
249.476	2.98199
248.867	3.01082
248.333	3.03997
247.87	3.06825
247.47	3.09448
247.47	3.09448
247.191	3.13573
246.898	3.17629
246.59	3.21625
246.264	3.2557
245.917	3.29471
245.546	3.33336
245.149	3.37175
244.723	3.40994
244.267	3.44802
243.777	3.48609
243.251	3.52421
242.687	3.56246
242.687	3.56246
241.917	3.60395
241.088	3.64847
240.156	3.68991
239.081	3.72216
239.081	3.72216
239.078	3.72925
239.076	3.73624
239.073	3.743
