Uv/Vis Spectrum: Benzoic acid, 4-hydroxy-
Formula: C7H6O3
CAS: 99-96-7
Melting point: 214.5
Instrument: n.i.g.
Origin: INSTITUTE OF ENERGY PROBLEMS OF CHEMICAL PHYSICS, RAS
Wavelength (nm)	Logarithm epsilon
99.3526	0.767349
99.2509	0.799168
99.1367	0.867892
99.0355	0.899711
98.9345	0.957617
98.8336	1.00026
98.7205	1.03207
98.6201	1.1008
98.5199	1.1428
98.4074	1.20071
98.3076	1.25416
98.2081	1.29616
98.0963	1.34388
97.9972	1.40179
97.8983	1.44952
97.7995	1.48643
97.6887	1.50233
97.5904	1.58697
97.4923	1.63979
97.3821	1.68179
97.2845	1.72442
97.187	1.74033
97.0775	1.81924
96.9804	1.87205
96.8835	1.92487
96.7748	1.95669
96.6783	2.01523
96.582	2.06232
96.4859	2.13677
96.378	2.16796
96.2823	2.24241
96.1868	2.29522
96.0796	2.37413
95.9845	2.37986
95.8896	2.41677
95.7831	2.48549
95.6886	2.51731
95.5942	2.57013
95.4884	2.62804
95.3944	2.67576
95.3944	2.75467
95.3007	2.74958
95.3007	2.84503
95.2071	2.89212
95.1021	2.91376
95.0089	3.05121
94.9159	3.08812
94.8115	3.13521
94.7189	3.15684
94.6265	3.20393
94.5227	3.21475
94.4307	3.24657
94.3388	3.28348
94.2471	3.30448
94.1442	3.3312
94.0529	3.35729
93.9618	3.38402
93.8595	3.39993
93.7687	3.42093
93.6781	3.44702
93.5764	3.49474
93.4862	3.54247
93.3962	3.59529
93.2951	3.6271
93.2054	3.6481
93.1159	3.67483
93.0266	3.69583
92.9263	3.72192
92.8374	3.74356
92.7486	3.76456
92.6489	3.77474
92.5605	3.79065
92.4722	3.80146
92.3731	3.81228
92.2852	3.82246
92.1975	3.83837
92.099	3.84919
92.0116	3.85428
91.9244	3.8651
91.8373	3.87528
91.6529	3.89119
91.5663	3.90201
91.4692	3.91219
91.383	3.92301
91.2969	3.9281
91.2003	3.93383
91.1147	3.94401
91.0291	3.95483
90.8479	3.95992
90.7629	3.96501
90.678	3.97073
90.4982	3.98664
90.4138	3.99173
90.3191	3.99682
90.2351	4.01273
90.1512	4.01782
89.7133	4.03946
89.6304	4.04455
89.5476	4.05537
89.29	4.06555
89.1976	4.07128
89.0338	4.07637
88.9419	4.08146
88.8604	4.08655
88.7791	4.09228
88.6979	4.09737
88.5258	4.10246
88.3544	4.11837
88.1937	4.12409
88.0236	4.12918
87.8542	4.13427
87.616	4.14509
87.4482	4.15018
87.3694	4.161
87.2024	4.16609
87.0361	4.17118
86.8024	4.17691
86.6376	4.182
86.4734	4.18709
86.3195	4.19282
85.9942	4.19791
85.8419	4.203
85.6808	4.20873
85.3696	4.21382
84.5233	4.224
84.367	4.21891
84.1383	4.21382
83.8382	4.20873
83.7658	4.19791
83.5403	4.19282
83.3876	4.18709
83.316	4.182
83.0218	4.17118
82.9419	4.161
82.871	4.15527
82.7208	4.15018
82.5799	4.13427
81.9951	4.09737
81.9259	4.09228
81.4956	4.05537
81.4271	4.04964
81.3503	4.04455
81.2821	4.03946
81.1461	4.03373
81.0021	4.01782
80.9345	4.01273
80.8585	4.00255
80.7912	3.99682
80.7239	3.99173
80.6484	3.98091
80.3061	3.95992
80.2397	3.95483
80.1651	3.94973
80.0988	3.93892
80.0327	3.9281
79.8926	3.92301
79.8269	3.91219
79.753	3.9071
79.5567	3.8861
79.4834	3.87528
79.2803	3.8651
79.2155	3.84919
79.1509	3.84346
79.0783	3.83328
79.0139	3.82755
78.8773	3.81228
78.8132	3.80655
78.7492	3.79637
78.6853	3.79065
78.6135	3.78046
78.5498	3.76965
78.4863	3.76456
78.4149	3.74865
78.3515	3.74356
78.1542	3.73274
78.0206	3.71174
77.8952	3.69583
77.8327	3.69074
77.7625	3.67992
77.7002	3.67483
77.638	3.66401
77.5681	3.6532
77.5061	3.6481
77.4442	3.64301
77.313	3.62201
77.2515	3.61629
77.19	3.6061
77.1209	3.59529
77.0596	3.5902
76.9984	3.56856
76.9297	3.55838
76.8079	3.55329
76.7395	3.54247
76.6788	3.53165
76.6182	3.52147
76.5502	3.51574
76.4898	3.50556
76.3017	3.47375
76.2417	3.46293
76.1819	3.45784
76.1146	3.44702
76.0549	3.43684
75.9953	3.43175
75.9284	3.41584
75.869	3.41011
75.8096	3.39993
75.743	3.38911
75.6839	3.38402
75.6249	3.3732
75.566	3.35729
75.4998	3.3522
75.441	3.34138
75.3824	3.3312
75.2581	3.3102
75.1997	3.30448
75.1342	3.28857
75.076	3.28348
75.0179	3.27266
74.9527	3.25675
74.837	3.25166
74.7793	3.24148
74.7145	3.21475
